
    
#======================================================================

# CRYSTAL DATA

#----------------------------------------------------------------------

data_VESTA_phase_1


_chemical_name_common                  'XYZ file'
_cell_length_a                         30.8
_cell_length_b                         30.8
_cell_length_c                         30.8
_cell_angle_alpha                      90
_cell_angle_beta                       90
_cell_angle_gamma                      90
_symmetry_space_group_name_H-M    'P1'
_symmetry_Int_Tables_number       1
_symmetry_cell_setting            triclinic
loop_
_space_group_symop_operation_xyz
   'x, y, z'

loop_
   _atom_site_label
   _atom_site_occupancy
   _atom_site_fract_x
   _atom_site_fract_y
   _atom_site_fract_z
   _atom_site_charge
C1 C 0.5 0.7069014260194639 0.025 0.3915
C2 C 0.549514752209891 0.7008892466073802 0.025 -0.3915
C3 C 0.5961518870001444 0.6832021143851762 0.025 0.3915
C4 C 0.6372010236158382 0.6548679411874967 0.025 -0.3915
C5 C 0.6702765354444088 0.6175334061700617 0.025 0.3915
C6 C 0.6934561939629735 0.5733682568025715 0.025 -0.3915
C7 C 0.7053928816730639 0.5249392110324784 0.025 0.3915
C8 C 0.7053928816730639 0.4750607889675215 0.025 -0.3915
C9 C 0.6934561939629735 0.4266317431974284 0.025 0.3915
C10 C 0.6702765354444088 0.3824665938299383 0.025 -0.3915
C11 C 0.6372010236158381 0.34513205881250325 0.025 0.3915
C12 C 0.5961518870001444 0.3167978856148238 0.025 -0.3915
C13 C 0.549514752209891 0.2991107533926199 0.025 0.3915
C14 C 0.5 0.29309857398053607 0.025 -0.3915
C15 C 0.45048524779010907 0.29911075339261983 0.025 0.3915
C16 C 0.4038481129998556 0.3167978856148238 0.025 -0.3915
C17 C 0.3627989763841618 0.3451320588125033 0.025 0.3915
C18 C 0.3297234645555912 0.38246659382993825 0.025 -0.3915
C19 C 0.3065438060370265 0.42663174319742836 0.025 0.3915
C20 C 0.29460711832693615 0.47506078896752135 0.025 -0.3915
C21 C 0.29460711832693615 0.5249392110324786 0.025 0.3915
C22 C 0.3065438060370265 0.5733682568025715 0.025 -0.3915
C23 C 0.3297234645555912 0.6175334061700617 0.025 0.3915
C24 C 0.3627989763841618 0.6548679411874966 0.025 -0.3915
C25 C 0.4038481129998556 0.6832021143851762 0.025 0.3915
C26 C 0.4504852477901092 0.7008892466073803 0.025 -0.3915
C27 C 0.5 0.756901426019464 0.025 -0.3915
C28 C 0.5614805354242689 0.7494363374786828 0.025 0.3915
C29 C 0.6193880456023328 0.7274749156678367 0.025 -0.3915
C30 C 0.670357156527878 0.6922934785960517 0.025 0.3915
C31 C 0.7114257287390916 0.6459366435066196 0.025 -0.3915
C32 C 0.7402070060972442 0.5910985011546983 0.025 0.3915
C33 C 0.7550283253779665 0.5309660450452446 0.025 -0.3915
C34 C 0.7550283253779665 0.4690339549547554 0.025 0.3915
C35 C 0.7402070060972442 0.4089014988453017 0.025 -0.3915
C36 C 0.7114257287390916 0.3540633564933805 0.025 0.3915
C37 C 0.6703571565278779 0.30770652140394816 0.025 -0.3915
C38 C 0.6193880456023328 0.2725250843321633 0.025 0.3915
C39 C 0.5614805354242689 0.25056366252131723 0.025 -0.3915
C40 C 0.5000000000000001 0.24309857398053605 0.025 0.3915
C41 C 0.4385194645757312 0.25056366252131723 0.025 -0.3915
C42 C 0.3806119543976672 0.27252508433216327 0.025 0.3915
C43 C 0.329642843472122 0.3077065214039483 0.025 -0.3915
C44 C 0.28857427126090845 0.3540633564933804 0.025 0.3915
C45 C 0.25979299390275573 0.4089014988453016 0.025 -0.3915
C46 C 0.24497167462203345 0.46903395495475525 0.025 0.3915
C47 C 0.24497167462203348 0.5309660450452449 0.025 -0.3915
C48 C 0.25979299390275573 0.5910985011546983 0.025 0.3915
C49 C 0.28857427126090834 0.6459366435066195 0.025 -0.3915
C50 C 0.329642843472122 0.6922934785960516 0.025 0.3915
C51 C 0.3806119543976672 0.7274749156678367 0.025 -0.3915
C52 C 0.4385194645757313 0.7494363374786829 0.025 0.3915
C53 C 0.5 0.7069014260194639 0.075 -0.3915
C54 C 0.549514752209891 0.7008892466073802 0.075 0.3915
C55 C 0.5961518870001444 0.6832021143851762 0.075 -0.3915
C56 C 0.6372010236158382 0.6548679411874967 0.075 0.3915
C57 C 0.6702765354444088 0.6175334061700617 0.075 -0.3915
C58 C 0.6934561939629735 0.5733682568025715 0.075 0.3915
C59 C 0.7053928816730639 0.5249392110324784 0.075 -0.3915
C60 C 0.7053928816730639 0.4750607889675215 0.075 0.3915
C61 C 0.6934561939629735 0.4266317431974284 0.075 -0.3915
C62 C 0.6702765354444088 0.3824665938299383 0.075 0.3915
C63 C 0.6372010236158381 0.34513205881250325 0.075 -0.3915
C64 C 0.5961518870001444 0.3167978856148238 0.075 0.3915
C65 C 0.549514752209891 0.2991107533926199 0.075 -0.3915
C66 C 0.5 0.29309857398053607 0.075 0.3915
C67 C 0.45048524779010907 0.29911075339261983 0.075 -0.3915
C68 C 0.4038481129998556 0.3167978856148238 0.075 0.3915
C69 C 0.3627989763841618 0.3451320588125033 0.075 -0.3915
C70 C 0.3297234645555912 0.38246659382993825 0.075 0.3915
C71 C 0.3065438060370265 0.42663174319742836 0.075 -0.3915
C72 C 0.29460711832693615 0.47506078896752135 0.075 0.3915
C73 C 0.29460711832693615 0.5249392110324786 0.075 -0.3915
C74 C 0.3065438060370265 0.5733682568025715 0.075 0.3915
C75 C 0.3297234645555912 0.6175334061700617 0.075 -0.3915
C76 C 0.3627989763841618 0.6548679411874966 0.075 0.3915
C77 C 0.4038481129998556 0.6832021143851762 0.075 -0.3915
C78 C 0.4504852477901092 0.7008892466073803 0.075 0.3915
C79 C 0.5 0.756901426019464 0.075 0.3915
C80 C 0.5614805354242689 0.7494363374786828 0.075 -0.3915
C81 C 0.6193880456023328 0.7274749156678367 0.075 0.3915
C82 C 0.670357156527878 0.6922934785960517 0.075 -0.3915
C83 C 0.7114257287390916 0.6459366435066196 0.075 0.3915
C84 C 0.7402070060972442 0.5910985011546983 0.075 -0.3915
C85 C 0.7550283253779665 0.5309660450452446 0.075 0.3915
C86 C 0.7550283253779665 0.4690339549547554 0.075 -0.3915
C87 C 0.7402070060972442 0.4089014988453017 0.075 0.3915
C88 C 0.7114257287390916 0.3540633564933805 0.075 -0.3915
C89 C 0.6703571565278779 0.30770652140394816 0.075 0.3915
C90 C 0.6193880456023328 0.2725250843321633 0.075 -0.3915
C91 C 0.5614805354242689 0.25056366252131723 0.075 0.3915
C92 C 0.5000000000000001 0.24309857398053605 0.075 -0.3915
C93 C 0.4385194645757312 0.25056366252131723 0.075 0.3915
C94 C 0.3806119543976672 0.27252508433216327 0.075 -0.3915
C95 C 0.329642843472122 0.3077065214039483 0.075 0.3915
C96 C 0.28857427126090845 0.3540633564933804 0.075 -0.3915
C97 C 0.25979299390275573 0.4089014988453016 0.075 0.3915
C98 C 0.24497167462203345 0.46903395495475525 0.075 -0.3915
C99 C 0.24497167462203348 0.5309660450452449 0.075 0.3915
C100 C 0.25979299390275573 0.5910985011546983 0.075 -0.3915
C101 C 0.28857427126090834 0.6459366435066195 0.075 0.3915
C102 C 0.329642843472122 0.6922934785960516 0.075 -0.3915
C103 C 0.3806119543976672 0.7274749156678367 0.075 0.3915
C104 C 0.4385194645757313 0.7494363374786829 0.075 -0.3915
C105 C 0.5 0.7069014260194639 0.125 0.3915
C106 C 0.549514752209891 0.7008892466073802 0.125 -0.3915
C107 C 0.5961518870001444 0.6832021143851762 0.125 0.3915
C108 C 0.6372010236158382 0.6548679411874967 0.125 -0.3915
C109 C 0.6702765354444088 0.6175334061700617 0.125 0.3915
C110 C 0.6934561939629735 0.5733682568025715 0.125 -0.3915
C111 C 0.7053928816730639 0.5249392110324784 0.125 0.3915
C112 C 0.7053928816730639 0.4750607889675215 0.125 -0.3915
C113 C 0.6934561939629735 0.4266317431974284 0.125 0.3915
C114 C 0.6702765354444088 0.3824665938299383 0.125 -0.3915
C115 C 0.6372010236158381 0.34513205881250325 0.125 0.3915
C116 C 0.5961518870001444 0.3167978856148238 0.125 -0.3915
C117 C 0.549514752209891 0.2991107533926199 0.125 0.3915
C118 C 0.5 0.29309857398053607 0.125 -0.3915
C119 C 0.45048524779010907 0.29911075339261983 0.125 0.3915
C120 C 0.4038481129998556 0.3167978856148238 0.125 -0.3915
C121 C 0.3627989763841618 0.3451320588125033 0.125 0.3915
C122 C 0.3297234645555912 0.38246659382993825 0.125 -0.3915
C123 C 0.3065438060370265 0.42663174319742836 0.125 0.3915
C124 C 0.29460711832693615 0.47506078896752135 0.125 -0.3915
C125 C 0.29460711832693615 0.5249392110324786 0.125 0.3915
C126 C 0.3065438060370265 0.5733682568025715 0.125 -0.3915
C127 C 0.3297234645555912 0.6175334061700617 0.125 0.3915
C128 C 0.3627989763841618 0.6548679411874966 0.125 -0.3915
C129 C 0.4038481129998556 0.6832021143851762 0.125 0.3915
C130 C 0.4504852477901092 0.7008892466073803 0.125 -0.3915
C131 C 0.5 0.756901426019464 0.125 -0.3915
C132 C 0.5614805354242689 0.7494363374786828 0.125 0.3915
C133 C 0.6193880456023328 0.7274749156678367 0.125 -0.3915
C134 C 0.670357156527878 0.6922934785960517 0.125 0.3915
C135 C 0.7114257287390916 0.6459366435066196 0.125 -0.3915
C136 C 0.7402070060972442 0.5910985011546983 0.125 0.3915
C137 C 0.7550283253779665 0.5309660450452446 0.125 -0.3915
C138 C 0.7550283253779665 0.4690339549547554 0.125 0.3915
C139 C 0.7402070060972442 0.4089014988453017 0.125 -0.3915
C140 C 0.7114257287390916 0.3540633564933805 0.125 0.3915
C141 C 0.6703571565278779 0.30770652140394816 0.125 -0.3915
C142 C 0.6193880456023328 0.2725250843321633 0.125 0.3915
C143 C 0.5614805354242689 0.25056366252131723 0.125 -0.3915
C144 C 0.5000000000000001 0.24309857398053605 0.125 0.3915
C145 C 0.4385194645757312 0.25056366252131723 0.125 -0.3915
C146 C 0.3806119543976672 0.27252508433216327 0.125 0.3915
C147 C 0.329642843472122 0.3077065214039483 0.125 -0.3915
C148 C 0.28857427126090845 0.3540633564933804 0.125 0.3915
C149 C 0.25979299390275573 0.4089014988453016 0.125 -0.3915
C150 C 0.24497167462203345 0.46903395495475525 0.125 0.3915
C151 C 0.24497167462203348 0.5309660450452449 0.125 -0.3915
C152 C 0.25979299390275573 0.5910985011546983 0.125 0.3915
C153 C 0.28857427126090834 0.6459366435066195 0.125 -0.3915
C154 C 0.329642843472122 0.6922934785960516 0.125 0.3915
C155 C 0.3806119543976672 0.7274749156678367 0.125 -0.3915
C156 C 0.4385194645757313 0.7494363374786829 0.125 0.3915
C157 C 0.5 0.7069014260194639 0.17500000000000002 -0.3915
C158 C 0.549514752209891 0.7008892466073802 0.17500000000000002 0.3915
C159 C 0.5961518870001444 0.6832021143851762 0.17500000000000002 -0.3915
C160 C 0.6372010236158382 0.6548679411874967 0.17500000000000002 0.3915
C161 C 0.6702765354444088 0.6175334061700617 0.17500000000000002 -0.3915
C162 C 0.6934561939629735 0.5733682568025715 0.17500000000000002 0.3915
C163 C 0.7053928816730639 0.5249392110324784 0.17500000000000002 -0.3915
C164 C 0.7053928816730639 0.4750607889675215 0.17500000000000002 0.3915
C165 C 0.6934561939629735 0.4266317431974284 0.17500000000000002 -0.3915
C166 C 0.6702765354444088 0.3824665938299383 0.17500000000000002 0.3915
C167 C 0.6372010236158381 0.34513205881250325 0.17500000000000002 -0.3915
C168 C 0.5961518870001444 0.3167978856148238 0.17500000000000002 0.3915
C169 C 0.549514752209891 0.2991107533926199 0.17500000000000002 -0.3915
C170 C 0.5 0.29309857398053607 0.17500000000000002 0.3915
C171 C 0.45048524779010907 0.29911075339261983 0.17500000000000002 -0.3915
C172 C 0.4038481129998556 0.3167978856148238 0.17500000000000002 0.3915
C173 C 0.3627989763841618 0.3451320588125033 0.17500000000000002 -0.3915
C174 C 0.3297234645555912 0.38246659382993825 0.17500000000000002 0.3915
C175 C 0.3065438060370265 0.42663174319742836 0.17500000000000002 -0.3915
C176 C 0.29460711832693615 0.47506078896752135 0.17500000000000002 0.3915
C177 C 0.29460711832693615 0.5249392110324786 0.17500000000000002 -0.3915
C178 C 0.3065438060370265 0.5733682568025715 0.17500000000000002 0.3915
C179 C 0.3297234645555912 0.6175334061700617 0.17500000000000002 -0.3915
C180 C 0.3627989763841618 0.6548679411874966 0.17500000000000002 0.3915
C181 C 0.4038481129998556 0.6832021143851762 0.17500000000000002 -0.3915
C182 C 0.4504852477901092 0.7008892466073803 0.17500000000000002 0.3915
C183 C 0.5 0.756901426019464 0.17500000000000002 0.3915
C184 C 0.5614805354242689 0.7494363374786828 0.17500000000000002 -0.3915
C185 C 0.6193880456023328 0.7274749156678367 0.17500000000000002 0.3915
C186 C 0.670357156527878 0.6922934785960517 0.17500000000000002 -0.3915
C187 C 0.7114257287390916 0.6459366435066196 0.17500000000000002 0.3915
C188 C 0.7402070060972442 0.5910985011546983 0.17500000000000002 -0.3915
C189 C 0.7550283253779665 0.5309660450452446 0.17500000000000002 0.3915
C190 C 0.7550283253779665 0.4690339549547554 0.17500000000000002 -0.3915
C191 C 0.7402070060972442 0.4089014988453017 0.17500000000000002 0.3915
C192 C 0.7114257287390916 0.3540633564933805 0.17500000000000002 -0.3915
C193 C 0.6703571565278779 0.30770652140394816 0.17500000000000002 0.3915
C194 C 0.6193880456023328 0.2725250843321633 0.17500000000000002 -0.3915
C195 C 0.5614805354242689 0.25056366252131723 0.17500000000000002 0.3915
C196 C 0.5000000000000001 0.24309857398053605 0.17500000000000002 -0.3915
C197 C 0.4385194645757312 0.25056366252131723 0.17500000000000002 0.3915
C198 C 0.3806119543976672 0.27252508433216327 0.17500000000000002 -0.3915
C199 C 0.329642843472122 0.3077065214039483 0.17500000000000002 0.3915
C200 C 0.28857427126090845 0.3540633564933804 0.17500000000000002 -0.3915
C201 C 0.25979299390275573 0.4089014988453016 0.17500000000000002 0.3915
C202 C 0.24497167462203345 0.46903395495475525 0.17500000000000002 -0.3915
C203 C 0.24497167462203348 0.5309660450452449 0.17500000000000002 0.3915
C204 C 0.25979299390275573 0.5910985011546983 0.17500000000000002 -0.3915
C205 C 0.28857427126090834 0.6459366435066195 0.17500000000000002 0.3915
C206 C 0.329642843472122 0.6922934785960516 0.17500000000000002 -0.3915
C207 C 0.3806119543976672 0.7274749156678367 0.17500000000000002 0.3915
C208 C 0.4385194645757313 0.7494363374786829 0.17500000000000002 -0.3915
C209 C 0.5 0.7069014260194639 0.22499999999999998 0.3915
C210 C 0.549514752209891 0.7008892466073802 0.22499999999999998 -0.3915
C211 C 0.5961518870001444 0.6832021143851762 0.22499999999999998 0.3915
C212 C 0.6372010236158382 0.6548679411874967 0.22499999999999998 -0.3915
C213 C 0.6702765354444088 0.6175334061700617 0.22499999999999998 0.3915
C214 C 0.6934561939629735 0.5733682568025715 0.22499999999999998 -0.3915
C215 C 0.7053928816730639 0.5249392110324784 0.22499999999999998 0.3915
C216 C 0.7053928816730639 0.4750607889675215 0.22499999999999998 -0.3915
C217 C 0.6934561939629735 0.4266317431974284 0.22499999999999998 0.3915
C218 C 0.6702765354444088 0.3824665938299383 0.22499999999999998 -0.3915
C219 C 0.6372010236158381 0.34513205881250325 0.22499999999999998 0.3915
C220 C 0.5961518870001444 0.3167978856148238 0.22499999999999998 -0.3915
C221 C 0.549514752209891 0.2991107533926199 0.22499999999999998 0.3915
C222 C 0.5 0.29309857398053607 0.22499999999999998 -0.3915
C223 C 0.45048524779010907 0.29911075339261983 0.22499999999999998 0.3915
C224 C 0.4038481129998556 0.3167978856148238 0.22499999999999998 -0.3915
C225 C 0.3627989763841618 0.3451320588125033 0.22499999999999998 0.3915
C226 C 0.3297234645555912 0.38246659382993825 0.22499999999999998 -0.3915
C227 C 0.3065438060370265 0.42663174319742836 0.22499999999999998 0.3915
C228 C 0.29460711832693615 0.47506078896752135 0.22499999999999998 -0.3915
C229 C 0.29460711832693615 0.5249392110324786 0.22499999999999998 0.3915
C230 C 0.3065438060370265 0.5733682568025715 0.22499999999999998 -0.3915
C231 C 0.3297234645555912 0.6175334061700617 0.22499999999999998 0.3915
C232 C 0.3627989763841618 0.6548679411874966 0.22499999999999998 -0.3915
C233 C 0.4038481129998556 0.6832021143851762 0.22499999999999998 0.3915
C234 C 0.4504852477901092 0.7008892466073803 0.22499999999999998 -0.3915
C235 C 0.5 0.756901426019464 0.22499999999999998 -0.3915
C236 C 0.5614805354242689 0.7494363374786828 0.22499999999999998 0.3915
C237 C 0.6193880456023328 0.7274749156678367 0.22499999999999998 -0.3915
C238 C 0.670357156527878 0.6922934785960517 0.22499999999999998 0.3915
C239 C 0.7114257287390916 0.6459366435066196 0.22499999999999998 -0.3915
C240 C 0.7402070060972442 0.5910985011546983 0.22499999999999998 0.3915
C241 C 0.7550283253779665 0.5309660450452446 0.22499999999999998 -0.3915
C242 C 0.7550283253779665 0.4690339549547554 0.22499999999999998 0.3915
C243 C 0.7402070060972442 0.4089014988453017 0.22499999999999998 -0.3915
C244 C 0.7114257287390916 0.3540633564933805 0.22499999999999998 0.3915
C245 C 0.6703571565278779 0.30770652140394816 0.22499999999999998 -0.3915
C246 C 0.6193880456023328 0.2725250843321633 0.22499999999999998 0.3915
C247 C 0.5614805354242689 0.25056366252131723 0.22499999999999998 -0.3915
C248 C 0.5000000000000001 0.24309857398053605 0.22499999999999998 0.3915
C249 C 0.4385194645757312 0.25056366252131723 0.22499999999999998 -0.3915
C250 C 0.3806119543976672 0.27252508433216327 0.22499999999999998 0.3915
C251 C 0.329642843472122 0.3077065214039483 0.22499999999999998 -0.3915
C252 C 0.28857427126090845 0.3540633564933804 0.22499999999999998 0.3915
C253 C 0.25979299390275573 0.4089014988453016 0.22499999999999998 -0.3915
C254 C 0.24497167462203345 0.46903395495475525 0.22499999999999998 0.3915
C255 C 0.24497167462203348 0.5309660450452449 0.22499999999999998 -0.3915
C256 C 0.25979299390275573 0.5910985011546983 0.22499999999999998 0.3915
C257 C 0.28857427126090834 0.6459366435066195 0.22499999999999998 -0.3915
C258 C 0.329642843472122 0.6922934785960516 0.22499999999999998 0.3915
C259 C 0.3806119543976672 0.7274749156678367 0.22499999999999998 -0.3915
C260 C 0.4385194645757313 0.7494363374786829 0.22499999999999998 0.3915
C261 C 0.5 0.7069014260194639 0.275 -0.3915
C262 C 0.549514752209891 0.7008892466073802 0.275 0.3915
C263 C 0.5961518870001444 0.6832021143851762 0.275 -0.3915
C264 C 0.6372010236158382 0.6548679411874967 0.275 0.3915
C265 C 0.6702765354444088 0.6175334061700617 0.275 -0.3915
C266 C 0.6934561939629735 0.5733682568025715 0.275 0.3915
C267 C 0.7053928816730639 0.5249392110324784 0.275 -0.3915
C268 C 0.7053928816730639 0.4750607889675215 0.275 0.3915
C269 C 0.6934561939629735 0.4266317431974284 0.275 -0.3915
C270 C 0.6702765354444088 0.3824665938299383 0.275 0.3915
C271 C 0.6372010236158381 0.34513205881250325 0.275 -0.3915
C272 C 0.5961518870001444 0.3167978856148238 0.275 0.3915
C273 C 0.549514752209891 0.2991107533926199 0.275 -0.3915
C274 C 0.5 0.29309857398053607 0.275 0.3915
C275 C 0.45048524779010907 0.29911075339261983 0.275 -0.3915
C276 C 0.4038481129998556 0.3167978856148238 0.275 0.3915
C277 C 0.3627989763841618 0.3451320588125033 0.275 -0.3915
C278 C 0.3297234645555912 0.38246659382993825 0.275 0.3915
C279 C 0.3065438060370265 0.42663174319742836 0.275 -0.3915
C280 C 0.29460711832693615 0.47506078896752135 0.275 0.3915
C281 C 0.29460711832693615 0.5249392110324786 0.275 -0.3915
C282 C 0.3065438060370265 0.5733682568025715 0.275 0.3915
C283 C 0.3297234645555912 0.6175334061700617 0.275 -0.3915
C284 C 0.3627989763841618 0.6548679411874966 0.275 0.3915
C285 C 0.4038481129998556 0.6832021143851762 0.275 -0.3915
C286 C 0.4504852477901092 0.7008892466073803 0.275 0.3915
C287 C 0.5 0.756901426019464 0.275 0.3915
C288 C 0.5614805354242689 0.7494363374786828 0.275 -0.3915
C289 C 0.6193880456023328 0.7274749156678367 0.275 0.3915
C290 C 0.670357156527878 0.6922934785960517 0.275 -0.3915
C291 C 0.7114257287390916 0.6459366435066196 0.275 0.3915
C292 C 0.7402070060972442 0.5910985011546983 0.275 -0.3915
C293 C 0.7550283253779665 0.5309660450452446 0.275 0.3915
C294 C 0.7550283253779665 0.4690339549547554 0.275 -0.3915
C295 C 0.7402070060972442 0.4089014988453017 0.275 0.3915
C296 C 0.7114257287390916 0.3540633564933805 0.275 -0.3915
C297 C 0.6703571565278779 0.30770652140394816 0.275 0.3915
C298 C 0.6193880456023328 0.2725250843321633 0.275 -0.3915
C299 C 0.5614805354242689 0.25056366252131723 0.275 0.3915
C300 C 0.5000000000000001 0.24309857398053605 0.275 -0.3915
C301 C 0.4385194645757312 0.25056366252131723 0.275 0.3915
C302 C 0.3806119543976672 0.27252508433216327 0.275 -0.3915
C303 C 0.329642843472122 0.3077065214039483 0.275 0.3915
C304 C 0.28857427126090845 0.3540633564933804 0.275 -0.3915
C305 C 0.25979299390275573 0.4089014988453016 0.275 0.3915
C306 C 0.24497167462203345 0.46903395495475525 0.275 -0.3915
C307 C 0.24497167462203348 0.5309660450452449 0.275 0.3915
C308 C 0.25979299390275573 0.5910985011546983 0.275 -0.3915
C309 C 0.28857427126090834 0.6459366435066195 0.275 0.3915
C310 C 0.329642843472122 0.6922934785960516 0.275 -0.3915
C311 C 0.3806119543976672 0.7274749156678367 0.275 0.3915
C312 C 0.4385194645757313 0.7494363374786829 0.275 -0.3915
C313 C 0.5 0.7069014260194639 0.325 0.3915
C314 C 0.549514752209891 0.7008892466073802 0.325 -0.3915
C315 C 0.5961518870001444 0.6832021143851762 0.325 0.3915
C316 C 0.6372010236158382 0.6548679411874967 0.325 -0.3915
C317 C 0.6702765354444088 0.6175334061700617 0.325 0.3915
C318 C 0.6934561939629735 0.5733682568025715 0.325 -0.3915
C319 C 0.7053928816730639 0.5249392110324784 0.325 0.3915
C320 C 0.7053928816730639 0.4750607889675215 0.325 -0.3915
C321 C 0.6934561939629735 0.4266317431974284 0.325 0.3915
C322 C 0.6702765354444088 0.3824665938299383 0.325 -0.3915
C323 C 0.6372010236158381 0.34513205881250325 0.325 0.3915
C324 C 0.5961518870001444 0.3167978856148238 0.325 -0.3915
C325 C 0.549514752209891 0.2991107533926199 0.325 0.3915
C326 C 0.5 0.29309857398053607 0.325 -0.3915
C327 C 0.45048524779010907 0.29911075339261983 0.325 0.3915
C328 C 0.4038481129998556 0.3167978856148238 0.325 -0.3915
C329 C 0.3627989763841618 0.3451320588125033 0.325 0.3915
C330 C 0.3297234645555912 0.38246659382993825 0.325 -0.3915
C331 C 0.3065438060370265 0.42663174319742836 0.325 0.3915
C332 C 0.29460711832693615 0.47506078896752135 0.325 -0.3915
C333 C 0.29460711832693615 0.5249392110324786 0.325 0.3915
C334 C 0.3065438060370265 0.5733682568025715 0.325 -0.3915
C335 C 0.3297234645555912 0.6175334061700617 0.325 0.3915
C336 C 0.3627989763841618 0.6548679411874966 0.325 -0.3915
C337 C 0.4038481129998556 0.6832021143851762 0.325 0.3915
C338 C 0.4504852477901092 0.7008892466073803 0.325 -0.3915
C339 C 0.5 0.756901426019464 0.325 -0.3915
C340 C 0.5614805354242689 0.7494363374786828 0.325 0.3915
C341 C 0.6193880456023328 0.7274749156678367 0.325 -0.3915
C342 C 0.670357156527878 0.6922934785960517 0.325 0.3915
C343 C 0.7114257287390916 0.6459366435066196 0.325 -0.3915
C344 C 0.7402070060972442 0.5910985011546983 0.325 0.3915
C345 C 0.7550283253779665 0.5309660450452446 0.325 -0.3915
C346 C 0.7550283253779665 0.4690339549547554 0.325 0.3915
C347 C 0.7402070060972442 0.4089014988453017 0.325 -0.3915
C348 C 0.7114257287390916 0.3540633564933805 0.325 0.3915
C349 C 0.6703571565278779 0.30770652140394816 0.325 -0.3915
C350 C 0.6193880456023328 0.2725250843321633 0.325 0.3915
C351 C 0.5614805354242689 0.25056366252131723 0.325 -0.3915
C352 C 0.5000000000000001 0.24309857398053605 0.325 0.3915
C353 C 0.4385194645757312 0.25056366252131723 0.325 -0.3915
C354 C 0.3806119543976672 0.27252508433216327 0.325 0.3915
C355 C 0.329642843472122 0.3077065214039483 0.325 -0.3915
C356 C 0.28857427126090845 0.3540633564933804 0.325 0.3915
C357 C 0.25979299390275573 0.4089014988453016 0.325 -0.3915
C358 C 0.24497167462203345 0.46903395495475525 0.325 0.3915
C359 C 0.24497167462203348 0.5309660450452449 0.325 -0.3915
C360 C 0.25979299390275573 0.5910985011546983 0.325 0.3915
C361 C 0.28857427126090834 0.6459366435066195 0.325 -0.3915
C362 C 0.329642843472122 0.6922934785960516 0.325 0.3915
C363 C 0.3806119543976672 0.7274749156678367 0.325 -0.3915
C364 C 0.4385194645757313 0.7494363374786829 0.325 0.3915
C365 C 0.5 0.7069014260194639 0.375 -0.3915
C366 C 0.549514752209891 0.7008892466073802 0.375 0.3915
C367 C 0.5961518870001444 0.6832021143851762 0.375 -0.3915
C368 C 0.6372010236158382 0.6548679411874967 0.375 0.3915
C369 C 0.6702765354444088 0.6175334061700617 0.375 -0.3915
C370 C 0.6934561939629735 0.5733682568025715 0.375 0.3915
C371 C 0.7053928816730639 0.5249392110324784 0.375 -0.3915
C372 C 0.7053928816730639 0.4750607889675215 0.375 0.3915
C373 C 0.6934561939629735 0.4266317431974284 0.375 -0.3915
C374 C 0.6702765354444088 0.3824665938299383 0.375 0.3915
C375 C 0.6372010236158381 0.34513205881250325 0.375 -0.3915
C376 C 0.5961518870001444 0.3167978856148238 0.375 0.3915
C377 C 0.549514752209891 0.2991107533926199 0.375 -0.3915
C378 C 0.5 0.29309857398053607 0.375 0.3915
C379 C 0.45048524779010907 0.29911075339261983 0.375 -0.3915
C380 C 0.4038481129998556 0.3167978856148238 0.375 0.3915
C381 C 0.3627989763841618 0.3451320588125033 0.375 -0.3915
C382 C 0.3297234645555912 0.38246659382993825 0.375 0.3915
C383 C 0.3065438060370265 0.42663174319742836 0.375 -0.3915
C384 C 0.29460711832693615 0.47506078896752135 0.375 0.3915
C385 C 0.29460711832693615 0.5249392110324786 0.375 -0.3915
C386 C 0.3065438060370265 0.5733682568025715 0.375 0.3915
C387 C 0.3297234645555912 0.6175334061700617 0.375 -0.3915
C388 C 0.3627989763841618 0.6548679411874966 0.375 0.3915
C389 C 0.4038481129998556 0.6832021143851762 0.375 -0.3915
C390 C 0.4504852477901092 0.7008892466073803 0.375 0.3915
C391 C 0.5 0.756901426019464 0.375 0.3915
C392 C 0.5614805354242689 0.7494363374786828 0.375 -0.3915
C393 C 0.6193880456023328 0.7274749156678367 0.375 0.3915
C394 C 0.670357156527878 0.6922934785960517 0.375 -0.3915
C395 C 0.7114257287390916 0.6459366435066196 0.375 0.3915
C396 C 0.7402070060972442 0.5910985011546983 0.375 -0.3915
C397 C 0.7550283253779665 0.5309660450452446 0.375 0.3915
C398 C 0.7550283253779665 0.4690339549547554 0.375 -0.3915
C399 C 0.7402070060972442 0.4089014988453017 0.375 0.3915
C400 C 0.7114257287390916 0.3540633564933805 0.375 -0.3915
C401 C 0.6703571565278779 0.30770652140394816 0.375 0.3915
C402 C 0.6193880456023328 0.2725250843321633 0.375 -0.3915
C403 C 0.5614805354242689 0.25056366252131723 0.375 0.3915
C404 C 0.5000000000000001 0.24309857398053605 0.375 -0.3915
C405 C 0.4385194645757312 0.25056366252131723 0.375 0.3915
C406 C 0.3806119543976672 0.27252508433216327 0.375 -0.3915
C407 C 0.329642843472122 0.3077065214039483 0.375 0.3915
C408 C 0.28857427126090845 0.3540633564933804 0.375 -0.3915
C409 C 0.25979299390275573 0.4089014988453016 0.375 0.3915
C410 C 0.24497167462203345 0.46903395495475525 0.375 -0.3915
C411 C 0.24497167462203348 0.5309660450452449 0.375 0.3915
C412 C 0.25979299390275573 0.5910985011546983 0.375 -0.3915
C413 C 0.28857427126090834 0.6459366435066195 0.375 0.3915
C414 C 0.329642843472122 0.6922934785960516 0.375 -0.3915
C415 C 0.3806119543976672 0.7274749156678367 0.375 0.3915
C416 C 0.4385194645757313 0.7494363374786829 0.375 -0.3915
C417 C 0.5 0.7069014260194639 0.425 0.3915
C418 C 0.549514752209891 0.7008892466073802 0.425 -0.3915
C419 C 0.5961518870001444 0.6832021143851762 0.425 0.3915
C420 C 0.6372010236158382 0.6548679411874967 0.425 -0.3915
C421 C 0.6702765354444088 0.6175334061700617 0.425 0.3915
C422 C 0.6934561939629735 0.5733682568025715 0.425 -0.3915
C423 C 0.7053928816730639 0.5249392110324784 0.425 0.3915
C424 C 0.7053928816730639 0.4750607889675215 0.425 -0.3915
C425 C 0.6934561939629735 0.4266317431974284 0.425 0.3915
C426 C 0.6702765354444088 0.3824665938299383 0.425 -0.3915
C427 C 0.6372010236158381 0.34513205881250325 0.425 0.3915
C428 C 0.5961518870001444 0.3167978856148238 0.425 -0.3915
C429 C 0.549514752209891 0.2991107533926199 0.425 0.3915
C430 C 0.5 0.29309857398053607 0.425 -0.3915
C431 C 0.45048524779010907 0.29911075339261983 0.425 0.3915
C432 C 0.4038481129998556 0.3167978856148238 0.425 -0.3915
C433 C 0.3627989763841618 0.3451320588125033 0.425 0.3915
C434 C 0.3297234645555912 0.38246659382993825 0.425 -0.3915
C435 C 0.3065438060370265 0.42663174319742836 0.425 0.3915
C436 C 0.29460711832693615 0.47506078896752135 0.425 -0.3915
C437 C 0.29460711832693615 0.5249392110324786 0.425 0.3915
C438 C 0.3065438060370265 0.5733682568025715 0.425 -0.3915
C439 C 0.3297234645555912 0.6175334061700617 0.425 0.3915
C440 C 0.3627989763841618 0.6548679411874966 0.425 -0.3915
C441 C 0.4038481129998556 0.6832021143851762 0.425 0.3915
C442 C 0.4504852477901092 0.7008892466073803 0.425 -0.3915
C443 C 0.5 0.756901426019464 0.425 -0.3915
C444 C 0.5614805354242689 0.7494363374786828 0.425 0.3915
C445 C 0.6193880456023328 0.7274749156678367 0.425 -0.3915
C446 C 0.670357156527878 0.6922934785960517 0.425 0.3915
C447 C 0.7114257287390916 0.6459366435066196 0.425 -0.3915
C448 C 0.7402070060972442 0.5910985011546983 0.425 0.3915
C449 C 0.7550283253779665 0.5309660450452446 0.425 -0.3915
C450 C 0.7550283253779665 0.4690339549547554 0.425 0.3915
C451 C 0.7402070060972442 0.4089014988453017 0.425 -0.3915
C452 C 0.7114257287390916 0.3540633564933805 0.425 0.3915
C453 C 0.6703571565278779 0.30770652140394816 0.425 -0.3915
C454 C 0.6193880456023328 0.2725250843321633 0.425 0.3915
C455 C 0.5614805354242689 0.25056366252131723 0.425 -0.3915
C456 C 0.5000000000000001 0.24309857398053605 0.425 0.3915
C457 C 0.4385194645757312 0.25056366252131723 0.425 -0.3915
C458 C 0.3806119543976672 0.27252508433216327 0.425 0.3915
C459 C 0.329642843472122 0.3077065214039483 0.425 -0.3915
C460 C 0.28857427126090845 0.3540633564933804 0.425 0.3915
C461 C 0.25979299390275573 0.4089014988453016 0.425 -0.3915
C462 C 0.24497167462203345 0.46903395495475525 0.425 0.3915
C463 C 0.24497167462203348 0.5309660450452449 0.425 -0.3915
C464 C 0.25979299390275573 0.5910985011546983 0.425 0.3915
C465 C 0.28857427126090834 0.6459366435066195 0.425 -0.3915
C466 C 0.329642843472122 0.6922934785960516 0.425 0.3915
C467 C 0.3806119543976672 0.7274749156678367 0.425 -0.3915
C468 C 0.4385194645757313 0.7494363374786829 0.425 0.3915
C469 C 0.5 0.7069014260194639 0.475 -0.3915
C470 C 0.549514752209891 0.7008892466073802 0.475 0.3915
C471 C 0.5961518870001444 0.6832021143851762 0.475 -0.3915
C472 C 0.6372010236158382 0.6548679411874967 0.475 0.3915
C473 C 0.6702765354444088 0.6175334061700617 0.475 -0.3915
C474 C 0.6934561939629735 0.5733682568025715 0.475 0.3915
C475 C 0.7053928816730639 0.5249392110324784 0.475 -0.3915
C476 C 0.7053928816730639 0.4750607889675215 0.475 0.3915
C477 C 0.6934561939629735 0.4266317431974284 0.475 -0.3915
C478 C 0.6702765354444088 0.3824665938299383 0.475 0.3915
C479 C 0.6372010236158381 0.34513205881250325 0.475 -0.3915
C480 C 0.5961518870001444 0.3167978856148238 0.475 0.3915
C481 C 0.549514752209891 0.2991107533926199 0.475 -0.3915
C482 C 0.5 0.29309857398053607 0.475 0.3915
C483 C 0.45048524779010907 0.29911075339261983 0.475 -0.3915
C484 C 0.4038481129998556 0.3167978856148238 0.475 0.3915
C485 C 0.3627989763841618 0.3451320588125033 0.475 -0.3915
C486 C 0.3297234645555912 0.38246659382993825 0.475 0.3915
C487 C 0.3065438060370265 0.42663174319742836 0.475 -0.3915
C488 C 0.29460711832693615 0.47506078896752135 0.475 0.3915
C489 C 0.29460711832693615 0.5249392110324786 0.475 -0.3915
C490 C 0.3065438060370265 0.5733682568025715 0.475 0.3915
C491 C 0.3297234645555912 0.6175334061700617 0.475 -0.3915
C492 C 0.3627989763841618 0.6548679411874966 0.475 0.3915
C493 C 0.4038481129998556 0.6832021143851762 0.475 -0.3915
C494 C 0.4504852477901092 0.7008892466073803 0.475 0.3915
C495 C 0.5 0.756901426019464 0.475 0.3915
C496 C 0.5614805354242689 0.7494363374786828 0.475 -0.3915
C497 C 0.6193880456023328 0.7274749156678367 0.475 0.3915
C498 C 0.670357156527878 0.6922934785960517 0.475 -0.3915
C499 C 0.7114257287390916 0.6459366435066196 0.475 0.3915
C500 C 0.7402070060972442 0.5910985011546983 0.475 -0.3915
C501 C 0.7550283253779665 0.5309660450452446 0.475 0.3915
C502 C 0.7550283253779665 0.4690339549547554 0.475 -0.3915
C503 C 0.7402070060972442 0.4089014988453017 0.475 0.3915
C504 C 0.7114257287390916 0.3540633564933805 0.475 -0.3915
C505 C 0.6703571565278779 0.30770652140394816 0.475 0.3915
C506 C 0.6193880456023328 0.2725250843321633 0.475 -0.3915
C507 C 0.5614805354242689 0.25056366252131723 0.475 0.3915
C508 C 0.5000000000000001 0.24309857398053605 0.475 -0.3915
C509 C 0.4385194645757312 0.25056366252131723 0.475 0.3915
C510 C 0.3806119543976672 0.27252508433216327 0.475 -0.3915
C511 C 0.329642843472122 0.3077065214039483 0.475 0.3915
C512 C 0.28857427126090845 0.3540633564933804 0.475 -0.3915
C513 C 0.25979299390275573 0.4089014988453016 0.475 0.3915
C514 C 0.24497167462203345 0.46903395495475525 0.475 -0.3915
C515 C 0.24497167462203348 0.5309660450452449 0.475 0.3915
C516 C 0.25979299390275573 0.5910985011546983 0.475 -0.3915
C517 C 0.28857427126090834 0.6459366435066195 0.475 0.3915
C518 C 0.329642843472122 0.6922934785960516 0.475 -0.3915
C519 C 0.3806119543976672 0.7274749156678367 0.475 0.3915
C520 C 0.4385194645757313 0.7494363374786829 0.475 -0.3915
C521 C 0.5 0.7069014260194639 0.525 0.3915
C522 C 0.549514752209891 0.7008892466073802 0.525 -0.3915
C523 C 0.5961518870001444 0.6832021143851762 0.525 0.3915
C524 C 0.6372010236158382 0.6548679411874967 0.525 -0.3915
C525 C 0.6702765354444088 0.6175334061700617 0.525 0.3915
C526 C 0.6934561939629735 0.5733682568025715 0.525 -0.3915
C527 C 0.7053928816730639 0.5249392110324784 0.525 0.3915
C528 C 0.7053928816730639 0.4750607889675215 0.525 -0.3915
C529 C 0.6934561939629735 0.4266317431974284 0.525 0.3915
C530 C 0.6702765354444088 0.3824665938299383 0.525 -0.3915
C531 C 0.6372010236158381 0.34513205881250325 0.525 0.3915
C532 C 0.5961518870001444 0.3167978856148238 0.525 -0.3915
C533 C 0.549514752209891 0.2991107533926199 0.525 0.3915
C534 C 0.5 0.29309857398053607 0.525 -0.3915
C535 C 0.45048524779010907 0.29911075339261983 0.525 0.3915
C536 C 0.4038481129998556 0.3167978856148238 0.525 -0.3915
C537 C 0.3627989763841618 0.3451320588125033 0.525 0.3915
C538 C 0.3297234645555912 0.38246659382993825 0.525 -0.3915
C539 C 0.3065438060370265 0.42663174319742836 0.525 0.3915
C540 C 0.29460711832693615 0.47506078896752135 0.525 -0.3915
C541 C 0.29460711832693615 0.5249392110324786 0.525 0.3915
C542 C 0.3065438060370265 0.5733682568025715 0.525 -0.3915
C543 C 0.3297234645555912 0.6175334061700617 0.525 0.3915
C544 C 0.3627989763841618 0.6548679411874966 0.525 -0.3915
C545 C 0.4038481129998556 0.6832021143851762 0.525 0.3915
C546 C 0.4504852477901092 0.7008892466073803 0.525 -0.3915
C547 C 0.5 0.756901426019464 0.525 -0.3915
C548 C 0.5614805354242689 0.7494363374786828 0.525 0.3915
C549 C 0.6193880456023328 0.7274749156678367 0.525 -0.3915
C550 C 0.670357156527878 0.6922934785960517 0.525 0.3915
C551 C 0.7114257287390916 0.6459366435066196 0.525 -0.3915
C552 C 0.7402070060972442 0.5910985011546983 0.525 0.3915
C553 C 0.7550283253779665 0.5309660450452446 0.525 -0.3915
C554 C 0.7550283253779665 0.4690339549547554 0.525 0.3915
C555 C 0.7402070060972442 0.4089014988453017 0.525 -0.3915
C556 C 0.7114257287390916 0.3540633564933805 0.525 0.3915
C557 C 0.6703571565278779 0.30770652140394816 0.525 -0.3915
C558 C 0.6193880456023328 0.2725250843321633 0.525 0.3915
C559 C 0.5614805354242689 0.25056366252131723 0.525 -0.3915
C560 C 0.5000000000000001 0.24309857398053605 0.525 0.3915
C561 C 0.4385194645757312 0.25056366252131723 0.525 -0.3915
C562 C 0.3806119543976672 0.27252508433216327 0.525 0.3915
C563 C 0.329642843472122 0.3077065214039483 0.525 -0.3915
C564 C 0.28857427126090845 0.3540633564933804 0.525 0.3915
C565 C 0.25979299390275573 0.4089014988453016 0.525 -0.3915
C566 C 0.24497167462203345 0.46903395495475525 0.525 0.3915
C567 C 0.24497167462203348 0.5309660450452449 0.525 -0.3915
C568 C 0.25979299390275573 0.5910985011546983 0.525 0.3915
C569 C 0.28857427126090834 0.6459366435066195 0.525 -0.3915
C570 C 0.329642843472122 0.6922934785960516 0.525 0.3915
C571 C 0.3806119543976672 0.7274749156678367 0.525 -0.3915
C572 C 0.4385194645757313 0.7494363374786829 0.525 0.3915
C573 C 0.5 0.7069014260194639 0.5750000000000001 -0.3915
C574 C 0.549514752209891 0.7008892466073802 0.5750000000000001 0.3915
C575 C 0.5961518870001444 0.6832021143851762 0.5750000000000001 -0.3915
C576 C 0.6372010236158382 0.6548679411874967 0.5750000000000001 0.3915
C577 C 0.6702765354444088 0.6175334061700617 0.5750000000000001 -0.3915
C578 C 0.6934561939629735 0.5733682568025715 0.5750000000000001 0.3915
C579 C 0.7053928816730639 0.5249392110324784 0.5750000000000001 -0.3915
C580 C 0.7053928816730639 0.4750607889675215 0.5750000000000001 0.3915
C581 C 0.6934561939629735 0.4266317431974284 0.5750000000000001 -0.3915
C582 C 0.6702765354444088 0.3824665938299383 0.5750000000000001 0.3915
C583 C 0.6372010236158381 0.34513205881250325 0.5750000000000001 -0.3915
C584 C 0.5961518870001444 0.3167978856148238 0.5750000000000001 0.3915
C585 C 0.549514752209891 0.2991107533926199 0.5750000000000001 -0.3915
C586 C 0.5 0.29309857398053607 0.5750000000000001 0.3915
C587 C 0.45048524779010907 0.29911075339261983 0.5750000000000001 -0.3915
C588 C 0.4038481129998556 0.3167978856148238 0.5750000000000001 0.3915
C589 C 0.3627989763841618 0.3451320588125033 0.5750000000000001 -0.3915
C590 C 0.3297234645555912 0.38246659382993825 0.5750000000000001 0.3915
C591 C 0.3065438060370265 0.42663174319742836 0.5750000000000001 -0.3915
C592 C 0.29460711832693615 0.47506078896752135 0.5750000000000001 0.3915
C593 C 0.29460711832693615 0.5249392110324786 0.5750000000000001 -0.3915
C594 C 0.3065438060370265 0.5733682568025715 0.5750000000000001 0.3915
C595 C 0.3297234645555912 0.6175334061700617 0.5750000000000001 -0.3915
C596 C 0.3627989763841618 0.6548679411874966 0.5750000000000001 0.3915
C597 C 0.4038481129998556 0.6832021143851762 0.5750000000000001 -0.3915
C598 C 0.4504852477901092 0.7008892466073803 0.5750000000000001 0.3915
C599 C 0.5 0.756901426019464 0.5750000000000001 0.3915
C600 C 0.5614805354242689 0.7494363374786828 0.5750000000000001 -0.3915
C601 C 0.6193880456023328 0.7274749156678367 0.5750000000000001 0.3915
C602 C 0.670357156527878 0.6922934785960517 0.5750000000000001 -0.3915
C603 C 0.7114257287390916 0.6459366435066196 0.5750000000000001 0.3915
C604 C 0.7402070060972442 0.5910985011546983 0.5750000000000001 -0.3915
C605 C 0.7550283253779665 0.5309660450452446 0.5750000000000001 0.3915
C606 C 0.7550283253779665 0.4690339549547554 0.5750000000000001 -0.3915
C607 C 0.7402070060972442 0.4089014988453017 0.5750000000000001 0.3915
C608 C 0.7114257287390916 0.3540633564933805 0.5750000000000001 -0.3915
C609 C 0.6703571565278779 0.30770652140394816 0.5750000000000001 0.3915
C610 C 0.6193880456023328 0.2725250843321633 0.5750000000000001 -0.3915
C611 C 0.5614805354242689 0.25056366252131723 0.5750000000000001 0.3915
C612 C 0.5000000000000001 0.24309857398053605 0.5750000000000001 -0.3915
C613 C 0.4385194645757312 0.25056366252131723 0.5750000000000001 0.3915
C614 C 0.3806119543976672 0.27252508433216327 0.5750000000000001 -0.3915
C615 C 0.329642843472122 0.3077065214039483 0.5750000000000001 0.3915
C616 C 0.28857427126090845 0.3540633564933804 0.5750000000000001 -0.3915
C617 C 0.25979299390275573 0.4089014988453016 0.5750000000000001 0.3915
C618 C 0.24497167462203345 0.46903395495475525 0.5750000000000001 -0.3915
C619 C 0.24497167462203348 0.5309660450452449 0.5750000000000001 0.3915
C620 C 0.25979299390275573 0.5910985011546983 0.5750000000000001 -0.3915
C621 C 0.28857427126090834 0.6459366435066195 0.5750000000000001 0.3915
C622 C 0.329642843472122 0.6922934785960516 0.5750000000000001 -0.3915
C623 C 0.3806119543976672 0.7274749156678367 0.5750000000000001 0.3915
C624 C 0.4385194645757313 0.7494363374786829 0.5750000000000001 -0.3915
C625 C 0.5 0.7069014260194639 0.625 0.3915
C626 C 0.549514752209891 0.7008892466073802 0.625 -0.3915
C627 C 0.5961518870001444 0.6832021143851762 0.625 0.3915
C628 C 0.6372010236158382 0.6548679411874967 0.625 -0.3915
C629 C 0.6702765354444088 0.6175334061700617 0.625 0.3915
C630 C 0.6934561939629735 0.5733682568025715 0.625 -0.3915
C631 C 0.7053928816730639 0.5249392110324784 0.625 0.3915
C632 C 0.7053928816730639 0.4750607889675215 0.625 -0.3915
C633 C 0.6934561939629735 0.4266317431974284 0.625 0.3915
C634 C 0.6702765354444088 0.3824665938299383 0.625 -0.3915
C635 C 0.6372010236158381 0.34513205881250325 0.625 0.3915
C636 C 0.5961518870001444 0.3167978856148238 0.625 -0.3915
C637 C 0.549514752209891 0.2991107533926199 0.625 0.3915
C638 C 0.5 0.29309857398053607 0.625 -0.3915
C639 C 0.45048524779010907 0.29911075339261983 0.625 0.3915
C640 C 0.4038481129998556 0.3167978856148238 0.625 -0.3915
C641 C 0.3627989763841618 0.3451320588125033 0.625 0.3915
C642 C 0.3297234645555912 0.38246659382993825 0.625 -0.3915
C643 C 0.3065438060370265 0.42663174319742836 0.625 0.3915
C644 C 0.29460711832693615 0.47506078896752135 0.625 -0.3915
C645 C 0.29460711832693615 0.5249392110324786 0.625 0.3915
C646 C 0.3065438060370265 0.5733682568025715 0.625 -0.3915
C647 C 0.3297234645555912 0.6175334061700617 0.625 0.3915
C648 C 0.3627989763841618 0.6548679411874966 0.625 -0.3915
C649 C 0.4038481129998556 0.6832021143851762 0.625 0.3915
C650 C 0.4504852477901092 0.7008892466073803 0.625 -0.3915
C651 C 0.5 0.756901426019464 0.625 -0.3915
C652 C 0.5614805354242689 0.7494363374786828 0.625 0.3915
C653 C 0.6193880456023328 0.7274749156678367 0.625 -0.3915
C654 C 0.670357156527878 0.6922934785960517 0.625 0.3915
C655 C 0.7114257287390916 0.6459366435066196 0.625 -0.3915
C656 C 0.7402070060972442 0.5910985011546983 0.625 0.3915
C657 C 0.7550283253779665 0.5309660450452446 0.625 -0.3915
C658 C 0.7550283253779665 0.4690339549547554 0.625 0.3915
C659 C 0.7402070060972442 0.4089014988453017 0.625 -0.3915
C660 C 0.7114257287390916 0.3540633564933805 0.625 0.3915
C661 C 0.6703571565278779 0.30770652140394816 0.625 -0.3915
C662 C 0.6193880456023328 0.2725250843321633 0.625 0.3915
C663 C 0.5614805354242689 0.25056366252131723 0.625 -0.3915
C664 C 0.5000000000000001 0.24309857398053605 0.625 0.3915
C665 C 0.4385194645757312 0.25056366252131723 0.625 -0.3915
C666 C 0.3806119543976672 0.27252508433216327 0.625 0.3915
C667 C 0.329642843472122 0.3077065214039483 0.625 -0.3915
C668 C 0.28857427126090845 0.3540633564933804 0.625 0.3915
C669 C 0.25979299390275573 0.4089014988453016 0.625 -0.3915
C670 C 0.24497167462203345 0.46903395495475525 0.625 0.3915
C671 C 0.24497167462203348 0.5309660450452449 0.625 -0.3915
C672 C 0.25979299390275573 0.5910985011546983 0.625 0.3915
C673 C 0.28857427126090834 0.6459366435066195 0.625 -0.3915
C674 C 0.329642843472122 0.6922934785960516 0.625 0.3915
C675 C 0.3806119543976672 0.7274749156678367 0.625 -0.3915
C676 C 0.4385194645757313 0.7494363374786829 0.625 0.3915
C677 C 0.5 0.7069014260194639 0.6749999999999999 -0.3915
C678 C 0.549514752209891 0.7008892466073802 0.6749999999999999 0.3915
C679 C 0.5961518870001444 0.6832021143851762 0.6749999999999999 -0.3915
C680 C 0.6372010236158382 0.6548679411874967 0.6749999999999999 0.3915
C681 C 0.6702765354444088 0.6175334061700617 0.6749999999999999 -0.3915
C682 C 0.6934561939629735 0.5733682568025715 0.6749999999999999 0.3915
C683 C 0.7053928816730639 0.5249392110324784 0.6749999999999999 -0.3915
C684 C 0.7053928816730639 0.4750607889675215 0.6749999999999999 0.3915
C685 C 0.6934561939629735 0.4266317431974284 0.6749999999999999 -0.3915
C686 C 0.6702765354444088 0.3824665938299383 0.6749999999999999 0.3915
C687 C 0.6372010236158381 0.34513205881250325 0.6749999999999999 -0.3915
C688 C 0.5961518870001444 0.3167978856148238 0.6749999999999999 0.3915
C689 C 0.549514752209891 0.2991107533926199 0.6749999999999999 -0.3915
C690 C 0.5 0.29309857398053607 0.6749999999999999 0.3915
C691 C 0.45048524779010907 0.29911075339261983 0.6749999999999999 -0.3915
C692 C 0.4038481129998556 0.3167978856148238 0.6749999999999999 0.3915
C693 C 0.3627989763841618 0.3451320588125033 0.6749999999999999 -0.3915
C694 C 0.3297234645555912 0.38246659382993825 0.6749999999999999 0.3915
C695 C 0.3065438060370265 0.42663174319742836 0.6749999999999999 -0.3915
C696 C 0.29460711832693615 0.47506078896752135 0.6749999999999999 0.3915
C697 C 0.29460711832693615 0.5249392110324786 0.6749999999999999 -0.3915
C698 C 0.3065438060370265 0.5733682568025715 0.6749999999999999 0.3915
C699 C 0.3297234645555912 0.6175334061700617 0.6749999999999999 -0.3915
C700 C 0.3627989763841618 0.6548679411874966 0.6749999999999999 0.3915
C701 C 0.4038481129998556 0.6832021143851762 0.6749999999999999 -0.3915
C702 C 0.4504852477901092 0.7008892466073803 0.6749999999999999 0.3915
C703 C 0.5 0.756901426019464 0.6749999999999999 0.3915
C704 C 0.5614805354242689 0.7494363374786828 0.6749999999999999 -0.3915
C705 C 0.6193880456023328 0.7274749156678367 0.6749999999999999 0.3915
C706 C 0.670357156527878 0.6922934785960517 0.6749999999999999 -0.3915
C707 C 0.7114257287390916 0.6459366435066196 0.6749999999999999 0.3915
C708 C 0.7402070060972442 0.5910985011546983 0.6749999999999999 -0.3915
C709 C 0.7550283253779665 0.5309660450452446 0.6749999999999999 0.3915
C710 C 0.7550283253779665 0.4690339549547554 0.6749999999999999 -0.3915
C711 C 0.7402070060972442 0.4089014988453017 0.6749999999999999 0.3915
C712 C 0.7114257287390916 0.3540633564933805 0.6749999999999999 -0.3915
C713 C 0.6703571565278779 0.30770652140394816 0.6749999999999999 0.3915
C714 C 0.6193880456023328 0.2725250843321633 0.6749999999999999 -0.3915
C715 C 0.5614805354242689 0.25056366252131723 0.6749999999999999 0.3915
C716 C 0.5000000000000001 0.24309857398053605 0.6749999999999999 -0.3915
C717 C 0.4385194645757312 0.25056366252131723 0.6749999999999999 0.3915
C718 C 0.3806119543976672 0.27252508433216327 0.6749999999999999 -0.3915
C719 C 0.329642843472122 0.3077065214039483 0.6749999999999999 0.3915
C720 C 0.28857427126090845 0.3540633564933804 0.6749999999999999 -0.3915
C721 C 0.25979299390275573 0.4089014988453016 0.6749999999999999 0.3915
C722 C 0.24497167462203345 0.46903395495475525 0.6749999999999999 -0.3915
C723 C 0.24497167462203348 0.5309660450452449 0.6749999999999999 0.3915
C724 C 0.25979299390275573 0.5910985011546983 0.6749999999999999 -0.3915
C725 C 0.28857427126090834 0.6459366435066195 0.6749999999999999 0.3915
C726 C 0.329642843472122 0.6922934785960516 0.6749999999999999 -0.3915
C727 C 0.3806119543976672 0.7274749156678367 0.6749999999999999 0.3915
C728 C 0.4385194645757313 0.7494363374786829 0.6749999999999999 -0.3915
C729 C 0.5 0.7069014260194639 0.7250000000000001 0.3915
C730 C 0.549514752209891 0.7008892466073802 0.7250000000000001 -0.3915
C731 C 0.5961518870001444 0.6832021143851762 0.7250000000000001 0.3915
C732 C 0.6372010236158382 0.6548679411874967 0.7250000000000001 -0.3915
C733 C 0.6702765354444088 0.6175334061700617 0.7250000000000001 0.3915
C734 C 0.6934561939629735 0.5733682568025715 0.7250000000000001 -0.3915
C735 C 0.7053928816730639 0.5249392110324784 0.7250000000000001 0.3915
C736 C 0.7053928816730639 0.4750607889675215 0.7250000000000001 -0.3915
C737 C 0.6934561939629735 0.4266317431974284 0.7250000000000001 0.3915
C738 C 0.6702765354444088 0.3824665938299383 0.7250000000000001 -0.3915
C739 C 0.6372010236158381 0.34513205881250325 0.7250000000000001 0.3915
C740 C 0.5961518870001444 0.3167978856148238 0.7250000000000001 -0.3915
C741 C 0.549514752209891 0.2991107533926199 0.7250000000000001 0.3915
C742 C 0.5 0.29309857398053607 0.7250000000000001 -0.3915
C743 C 0.45048524779010907 0.29911075339261983 0.7250000000000001 0.3915
C744 C 0.4038481129998556 0.3167978856148238 0.7250000000000001 -0.3915
C745 C 0.3627989763841618 0.3451320588125033 0.7250000000000001 0.3915
C746 C 0.3297234645555912 0.38246659382993825 0.7250000000000001 -0.3915
C747 C 0.3065438060370265 0.42663174319742836 0.7250000000000001 0.3915
C748 C 0.29460711832693615 0.47506078896752135 0.7250000000000001 -0.3915
C749 C 0.29460711832693615 0.5249392110324786 0.7250000000000001 0.3915
C750 C 0.3065438060370265 0.5733682568025715 0.7250000000000001 -0.3915
C751 C 0.3297234645555912 0.6175334061700617 0.7250000000000001 0.3915
C752 C 0.3627989763841618 0.6548679411874966 0.7250000000000001 -0.3915
C753 C 0.4038481129998556 0.6832021143851762 0.7250000000000001 0.3915
C754 C 0.4504852477901092 0.7008892466073803 0.7250000000000001 -0.3915
C755 C 0.5 0.756901426019464 0.7250000000000001 -0.3915
C756 C 0.5614805354242689 0.7494363374786828 0.7250000000000001 0.3915
C757 C 0.6193880456023328 0.7274749156678367 0.7250000000000001 -0.3915
C758 C 0.670357156527878 0.6922934785960517 0.7250000000000001 0.3915
C759 C 0.7114257287390916 0.6459366435066196 0.7250000000000001 -0.3915
C760 C 0.7402070060972442 0.5910985011546983 0.7250000000000001 0.3915
C761 C 0.7550283253779665 0.5309660450452446 0.7250000000000001 -0.3915
C762 C 0.7550283253779665 0.4690339549547554 0.7250000000000001 0.3915
C763 C 0.7402070060972442 0.4089014988453017 0.7250000000000001 -0.3915
C764 C 0.7114257287390916 0.3540633564933805 0.7250000000000001 0.3915
C765 C 0.6703571565278779 0.30770652140394816 0.7250000000000001 -0.3915
C766 C 0.6193880456023328 0.2725250843321633 0.7250000000000001 0.3915
C767 C 0.5614805354242689 0.25056366252131723 0.7250000000000001 -0.3915
C768 C 0.5000000000000001 0.24309857398053605 0.7250000000000001 0.3915
C769 C 0.4385194645757312 0.25056366252131723 0.7250000000000001 -0.3915
C770 C 0.3806119543976672 0.27252508433216327 0.7250000000000001 0.3915
C771 C 0.329642843472122 0.3077065214039483 0.7250000000000001 -0.3915
C772 C 0.28857427126090845 0.3540633564933804 0.7250000000000001 0.3915
C773 C 0.25979299390275573 0.4089014988453016 0.7250000000000001 -0.3915
C774 C 0.24497167462203345 0.46903395495475525 0.7250000000000001 0.3915
C775 C 0.24497167462203348 0.5309660450452449 0.7250000000000001 -0.3915
C776 C 0.25979299390275573 0.5910985011546983 0.7250000000000001 0.3915
C777 C 0.28857427126090834 0.6459366435066195 0.7250000000000001 -0.3915
C778 C 0.329642843472122 0.6922934785960516 0.7250000000000001 0.3915
C779 C 0.3806119543976672 0.7274749156678367 0.7250000000000001 -0.3915
C780 C 0.4385194645757313 0.7494363374786829 0.7250000000000001 0.3915
C781 C 0.5 0.7069014260194639 0.775 -0.3915
C782 C 0.549514752209891 0.7008892466073802 0.775 0.3915
C783 C 0.5961518870001444 0.6832021143851762 0.775 -0.3915
C784 C 0.6372010236158382 0.6548679411874967 0.775 0.3915
C785 C 0.6702765354444088 0.6175334061700617 0.775 -0.3915
C786 C 0.6934561939629735 0.5733682568025715 0.775 0.3915
C787 C 0.7053928816730639 0.5249392110324784 0.775 -0.3915
C788 C 0.7053928816730639 0.4750607889675215 0.775 0.3915
C789 C 0.6934561939629735 0.4266317431974284 0.775 -0.3915
C790 C 0.6702765354444088 0.3824665938299383 0.775 0.3915
C791 C 0.6372010236158381 0.34513205881250325 0.775 -0.3915
C792 C 0.5961518870001444 0.3167978856148238 0.775 0.3915
C793 C 0.549514752209891 0.2991107533926199 0.775 -0.3915
C794 C 0.5 0.29309857398053607 0.775 0.3915
C795 C 0.45048524779010907 0.29911075339261983 0.775 -0.3915
C796 C 0.4038481129998556 0.3167978856148238 0.775 0.3915
C797 C 0.3627989763841618 0.3451320588125033 0.775 -0.3915
C798 C 0.3297234645555912 0.38246659382993825 0.775 0.3915
C799 C 0.3065438060370265 0.42663174319742836 0.775 -0.3915
C800 C 0.29460711832693615 0.47506078896752135 0.775 0.3915
C801 C 0.29460711832693615 0.5249392110324786 0.775 -0.3915
C802 C 0.3065438060370265 0.5733682568025715 0.775 0.3915
C803 C 0.3297234645555912 0.6175334061700617 0.775 -0.3915
C804 C 0.3627989763841618 0.6548679411874966 0.775 0.3915
C805 C 0.4038481129998556 0.6832021143851762 0.775 -0.3915
C806 C 0.4504852477901092 0.7008892466073803 0.775 0.3915
C807 C 0.5 0.756901426019464 0.775 0.3915
C808 C 0.5614805354242689 0.7494363374786828 0.775 -0.3915
C809 C 0.6193880456023328 0.7274749156678367 0.775 0.3915
C810 C 0.670357156527878 0.6922934785960517 0.775 -0.3915
C811 C 0.7114257287390916 0.6459366435066196 0.775 0.3915
C812 C 0.7402070060972442 0.5910985011546983 0.775 -0.3915
C813 C 0.7550283253779665 0.5309660450452446 0.775 0.3915
C814 C 0.7550283253779665 0.4690339549547554 0.775 -0.3915
C815 C 0.7402070060972442 0.4089014988453017 0.775 0.3915
C816 C 0.7114257287390916 0.3540633564933805 0.775 -0.3915
C817 C 0.6703571565278779 0.30770652140394816 0.775 0.3915
C818 C 0.6193880456023328 0.2725250843321633 0.775 -0.3915
C819 C 0.5614805354242689 0.25056366252131723 0.775 0.3915
C820 C 0.5000000000000001 0.24309857398053605 0.775 -0.3915
C821 C 0.4385194645757312 0.25056366252131723 0.775 0.3915
C822 C 0.3806119543976672 0.27252508433216327 0.775 -0.3915
C823 C 0.329642843472122 0.3077065214039483 0.775 0.3915
C824 C 0.28857427126090845 0.3540633564933804 0.775 -0.3915
C825 C 0.25979299390275573 0.4089014988453016 0.775 0.3915
C826 C 0.24497167462203345 0.46903395495475525 0.775 -0.3915
C827 C 0.24497167462203348 0.5309660450452449 0.775 0.3915
C828 C 0.25979299390275573 0.5910985011546983 0.775 -0.3915
C829 C 0.28857427126090834 0.6459366435066195 0.775 0.3915
C830 C 0.329642843472122 0.6922934785960516 0.775 -0.3915
C831 C 0.3806119543976672 0.7274749156678367 0.775 0.3915
C832 C 0.4385194645757313 0.7494363374786829 0.775 -0.3915
C833 C 0.5 0.7069014260194639 0.825 0.3915
C834 C 0.549514752209891 0.7008892466073802 0.825 -0.3915
C835 C 0.5961518870001444 0.6832021143851762 0.825 0.3915
C836 C 0.6372010236158382 0.6548679411874967 0.825 -0.3915
C837 C 0.6702765354444088 0.6175334061700617 0.825 0.3915
C838 C 0.6934561939629735 0.5733682568025715 0.825 -0.3915
C839 C 0.7053928816730639 0.5249392110324784 0.825 0.3915
C840 C 0.7053928816730639 0.4750607889675215 0.825 -0.3915
C841 C 0.6934561939629735 0.4266317431974284 0.825 0.3915
C842 C 0.6702765354444088 0.3824665938299383 0.825 -0.3915
C843 C 0.6372010236158381 0.34513205881250325 0.825 0.3915
C844 C 0.5961518870001444 0.3167978856148238 0.825 -0.3915
C845 C 0.549514752209891 0.2991107533926199 0.825 0.3915
C846 C 0.5 0.29309857398053607 0.825 -0.3915
C847 C 0.45048524779010907 0.29911075339261983 0.825 0.3915
C848 C 0.4038481129998556 0.3167978856148238 0.825 -0.3915
C849 C 0.3627989763841618 0.3451320588125033 0.825 0.3915
C850 C 0.3297234645555912 0.38246659382993825 0.825 -0.3915
C851 C 0.3065438060370265 0.42663174319742836 0.825 0.3915
C852 C 0.29460711832693615 0.47506078896752135 0.825 -0.3915
C853 C 0.29460711832693615 0.5249392110324786 0.825 0.3915
C854 C 0.3065438060370265 0.5733682568025715 0.825 -0.3915
C855 C 0.3297234645555912 0.6175334061700617 0.825 0.3915
C856 C 0.3627989763841618 0.6548679411874966 0.825 -0.3915
C857 C 0.4038481129998556 0.6832021143851762 0.825 0.3915
C858 C 0.4504852477901092 0.7008892466073803 0.825 -0.3915
C859 C 0.5 0.756901426019464 0.825 -0.3915
C860 C 0.5614805354242689 0.7494363374786828 0.825 0.3915
C861 C 0.6193880456023328 0.7274749156678367 0.825 -0.3915
C862 C 0.670357156527878 0.6922934785960517 0.825 0.3915
C863 C 0.7114257287390916 0.6459366435066196 0.825 -0.3915
C864 C 0.7402070060972442 0.5910985011546983 0.825 0.3915
C865 C 0.7550283253779665 0.5309660450452446 0.825 -0.3915
C866 C 0.7550283253779665 0.4690339549547554 0.825 0.3915
C867 C 0.7402070060972442 0.4089014988453017 0.825 -0.3915
C868 C 0.7114257287390916 0.3540633564933805 0.825 0.3915
C869 C 0.6703571565278779 0.30770652140394816 0.825 -0.3915
C870 C 0.6193880456023328 0.2725250843321633 0.825 0.3915
C871 C 0.5614805354242689 0.25056366252131723 0.825 -0.3915
C872 C 0.5000000000000001 0.24309857398053605 0.825 0.3915
C873 C 0.4385194645757312 0.25056366252131723 0.825 -0.3915
C874 C 0.3806119543976672 0.27252508433216327 0.825 0.3915
C875 C 0.329642843472122 0.3077065214039483 0.825 -0.3915
C876 C 0.28857427126090845 0.3540633564933804 0.825 0.3915
C877 C 0.25979299390275573 0.4089014988453016 0.825 -0.3915
C878 C 0.24497167462203345 0.46903395495475525 0.825 0.3915
C879 C 0.24497167462203348 0.5309660450452449 0.825 -0.3915
C880 C 0.25979299390275573 0.5910985011546983 0.825 0.3915
C881 C 0.28857427126090834 0.6459366435066195 0.825 -0.3915
C882 C 0.329642843472122 0.6922934785960516 0.825 0.3915
C883 C 0.3806119543976672 0.7274749156678367 0.825 -0.3915
C884 C 0.4385194645757313 0.7494363374786829 0.825 0.3915
C885 C 0.5 0.7069014260194639 0.875 -0.3915
C886 C 0.549514752209891 0.7008892466073802 0.875 0.3915
C887 C 0.5961518870001444 0.6832021143851762 0.875 -0.3915
C888 C 0.6372010236158382 0.6548679411874967 0.875 0.3915
C889 C 0.6702765354444088 0.6175334061700617 0.875 -0.3915
C890 C 0.6934561939629735 0.5733682568025715 0.875 0.3915
C891 C 0.7053928816730639 0.5249392110324784 0.875 -0.3915
C892 C 0.7053928816730639 0.4750607889675215 0.875 0.3915
C893 C 0.6934561939629735 0.4266317431974284 0.875 -0.3915
C894 C 0.6702765354444088 0.3824665938299383 0.875 0.3915
C895 C 0.6372010236158381 0.34513205881250325 0.875 -0.3915
C896 C 0.5961518870001444 0.3167978856148238 0.875 0.3915
C897 C 0.549514752209891 0.2991107533926199 0.875 -0.3915
C898 C 0.5 0.29309857398053607 0.875 0.3915
C899 C 0.45048524779010907 0.29911075339261983 0.875 -0.3915
C900 C 0.4038481129998556 0.3167978856148238 0.875 0.3915
C901 C 0.3627989763841618 0.3451320588125033 0.875 -0.3915
C902 C 0.3297234645555912 0.38246659382993825 0.875 0.3915
C903 C 0.3065438060370265 0.42663174319742836 0.875 -0.3915
C904 C 0.29460711832693615 0.47506078896752135 0.875 0.3915
C905 C 0.29460711832693615 0.5249392110324786 0.875 -0.3915
C906 C 0.3065438060370265 0.5733682568025715 0.875 0.3915
C907 C 0.3297234645555912 0.6175334061700617 0.875 -0.3915
C908 C 0.3627989763841618 0.6548679411874966 0.875 0.3915
C909 C 0.4038481129998556 0.6832021143851762 0.875 -0.3915
C910 C 0.4504852477901092 0.7008892466073803 0.875 0.3915
C911 C 0.5 0.756901426019464 0.875 0.3915
C912 C 0.5614805354242689 0.7494363374786828 0.875 -0.3915
C913 C 0.6193880456023328 0.7274749156678367 0.875 0.3915
C914 C 0.670357156527878 0.6922934785960517 0.875 -0.3915
C915 C 0.7114257287390916 0.6459366435066196 0.875 0.3915
C916 C 0.7402070060972442 0.5910985011546983 0.875 -0.3915
C917 C 0.7550283253779665 0.5309660450452446 0.875 0.3915
C918 C 0.7550283253779665 0.4690339549547554 0.875 -0.3915
C919 C 0.7402070060972442 0.4089014988453017 0.875 0.3915
C920 C 0.7114257287390916 0.3540633564933805 0.875 -0.3915
C921 C 0.6703571565278779 0.30770652140394816 0.875 0.3915
C922 C 0.6193880456023328 0.2725250843321633 0.875 -0.3915
C923 C 0.5614805354242689 0.25056366252131723 0.875 0.3915
C924 C 0.5000000000000001 0.24309857398053605 0.875 -0.3915
C925 C 0.4385194645757312 0.25056366252131723 0.875 0.3915
C926 C 0.3806119543976672 0.27252508433216327 0.875 -0.3915
C927 C 0.329642843472122 0.3077065214039483 0.875 0.3915
C928 C 0.28857427126090845 0.3540633564933804 0.875 -0.3915
C929 C 0.25979299390275573 0.4089014988453016 0.875 0.3915
C930 C 0.24497167462203345 0.46903395495475525 0.875 -0.3915
C931 C 0.24497167462203348 0.5309660450452449 0.875 0.3915
C932 C 0.25979299390275573 0.5910985011546983 0.875 -0.3915
C933 C 0.28857427126090834 0.6459366435066195 0.875 0.3915
C934 C 0.329642843472122 0.6922934785960516 0.875 -0.3915
C935 C 0.3806119543976672 0.7274749156678367 0.875 0.3915
C936 C 0.4385194645757313 0.7494363374786829 0.875 -0.3915
C937 C 0.5 0.7069014260194639 0.9249999999999999 0.3915
C938 C 0.549514752209891 0.7008892466073802 0.9249999999999999 -0.3915
C939 C 0.5961518870001444 0.6832021143851762 0.9249999999999999 0.3915
C940 C 0.6372010236158382 0.6548679411874967 0.9249999999999999 -0.3915
C941 C 0.6702765354444088 0.6175334061700617 0.9249999999999999 0.3915
C942 C 0.6934561939629735 0.5733682568025715 0.9249999999999999 -0.3915
C943 C 0.7053928816730639 0.5249392110324784 0.9249999999999999 0.3915
C944 C 0.7053928816730639 0.4750607889675215 0.9249999999999999 -0.3915
C945 C 0.6934561939629735 0.4266317431974284 0.9249999999999999 0.3915
C946 C 0.6702765354444088 0.3824665938299383 0.9249999999999999 -0.3915
C947 C 0.6372010236158381 0.34513205881250325 0.9249999999999999 0.3915
C948 C 0.5961518870001444 0.3167978856148238 0.9249999999999999 -0.3915
C949 C 0.549514752209891 0.2991107533926199 0.9249999999999999 0.3915
C950 C 0.5 0.29309857398053607 0.9249999999999999 -0.3915
C951 C 0.45048524779010907 0.29911075339261983 0.9249999999999999 0.3915
C952 C 0.4038481129998556 0.3167978856148238 0.9249999999999999 -0.3915
C953 C 0.3627989763841618 0.3451320588125033 0.9249999999999999 0.3915
C954 C 0.3297234645555912 0.38246659382993825 0.9249999999999999 -0.3915
C955 C 0.3065438060370265 0.42663174319742836 0.9249999999999999 0.3915
C956 C 0.29460711832693615 0.47506078896752135 0.9249999999999999 -0.3915
C957 C 0.29460711832693615 0.5249392110324786 0.9249999999999999 0.3915
C958 C 0.3065438060370265 0.5733682568025715 0.9249999999999999 -0.3915
C959 C 0.3297234645555912 0.6175334061700617 0.9249999999999999 0.3915
C960 C 0.3627989763841618 0.6548679411874966 0.9249999999999999 -0.3915
C961 C 0.4038481129998556 0.6832021143851762 0.9249999999999999 0.3915
C962 C 0.4504852477901092 0.7008892466073803 0.9249999999999999 -0.3915
C963 C 0.5 0.756901426019464 0.9249999999999999 -0.3915
C964 C 0.5614805354242689 0.7494363374786828 0.9249999999999999 0.3915
C965 C 0.6193880456023328 0.7274749156678367 0.9249999999999999 -0.3915
C966 C 0.670357156527878 0.6922934785960517 0.9249999999999999 0.3915
C967 C 0.7114257287390916 0.6459366435066196 0.9249999999999999 -0.3915
C968 C 0.7402070060972442 0.5910985011546983 0.9249999999999999 0.3915
C969 C 0.7550283253779665 0.5309660450452446 0.9249999999999999 -0.3915
C970 C 0.7550283253779665 0.4690339549547554 0.9249999999999999 0.3915
C971 C 0.7402070060972442 0.4089014988453017 0.9249999999999999 -0.3915
C972 C 0.7114257287390916 0.3540633564933805 0.9249999999999999 0.3915
C973 C 0.6703571565278779 0.30770652140394816 0.9249999999999999 -0.3915
C974 C 0.6193880456023328 0.2725250843321633 0.9249999999999999 0.3915
C975 C 0.5614805354242689 0.25056366252131723 0.9249999999999999 -0.3915
C976 C 0.5000000000000001 0.24309857398053605 0.9249999999999999 0.3915
C977 C 0.4385194645757312 0.25056366252131723 0.9249999999999999 -0.3915
C978 C 0.3806119543976672 0.27252508433216327 0.9249999999999999 0.3915
C979 C 0.329642843472122 0.3077065214039483 0.9249999999999999 -0.3915
C980 C 0.28857427126090845 0.3540633564933804 0.9249999999999999 0.3915
C981 C 0.25979299390275573 0.4089014988453016 0.9249999999999999 -0.3915
C982 C 0.24497167462203345 0.46903395495475525 0.9249999999999999 0.3915
C983 C 0.24497167462203348 0.5309660450452449 0.9249999999999999 -0.3915
C984 C 0.25979299390275573 0.5910985011546983 0.9249999999999999 0.3915
C985 C 0.28857427126090834 0.6459366435066195 0.9249999999999999 -0.3915
C986 C 0.329642843472122 0.6922934785960516 0.9249999999999999 0.3915
C987 C 0.3806119543976672 0.7274749156678367 0.9249999999999999 -0.3915
C988 C 0.4385194645757313 0.7494363374786829 0.9249999999999999 0.3915
C989 C 0.5 0.7069014260194639 0.975 -0.3915
C990 C 0.549514752209891 0.7008892466073802 0.975 0.3915
C991 C 0.5961518870001444 0.6832021143851762 0.975 -0.3915
C992 C 0.6372010236158382 0.6548679411874967 0.975 0.3915
C993 C 0.6702765354444088 0.6175334061700617 0.975 -0.3915
C994 C 0.6934561939629735 0.5733682568025715 0.975 0.3915
C995 C 0.7053928816730639 0.5249392110324784 0.975 -0.3915
C996 C 0.7053928816730639 0.4750607889675215 0.975 0.3915
C997 C 0.6934561939629735 0.4266317431974284 0.975 -0.3915
C998 C 0.6702765354444088 0.3824665938299383 0.975 0.3915
C999 C 0.6372010236158381 0.34513205881250325 0.975 -0.3915
C1000 C 0.5961518870001444 0.3167978856148238 0.975 0.3915
C1001 C 0.549514752209891 0.2991107533926199 0.975 -0.3915
C1002 C 0.5 0.29309857398053607 0.975 0.3915
C1003 C 0.45048524779010907 0.29911075339261983 0.975 -0.3915
C1004 C 0.4038481129998556 0.3167978856148238 0.975 0.3915
C1005 C 0.3627989763841618 0.3451320588125033 0.975 -0.3915
C1006 C 0.3297234645555912 0.38246659382993825 0.975 0.3915
C1007 C 0.3065438060370265 0.42663174319742836 0.975 -0.3915
C1008 C 0.29460711832693615 0.47506078896752135 0.975 0.3915
C1009 C 0.29460711832693615 0.5249392110324786 0.975 -0.3915
C1010 C 0.3065438060370265 0.5733682568025715 0.975 0.3915
C1011 C 0.3297234645555912 0.6175334061700617 0.975 -0.3915
C1012 C 0.3627989763841618 0.6548679411874966 0.975 0.3915
C1013 C 0.4038481129998556 0.6832021143851762 0.975 -0.3915
C1014 C 0.4504852477901092 0.7008892466073803 0.975 0.3915
C1015 C 0.5 0.756901426019464 0.975 0.3915
C1016 C 0.5614805354242689 0.7494363374786828 0.975 -0.3915
C1017 C 0.6193880456023328 0.7274749156678367 0.975 0.3915
C1018 C 0.670357156527878 0.6922934785960517 0.975 -0.3915
C1019 C 0.7114257287390916 0.6459366435066196 0.975 0.3915
C1020 C 0.7402070060972442 0.5910985011546983 0.975 -0.3915
C1021 C 0.7550283253779665 0.5309660450452446 0.975 0.3915
C1022 C 0.7550283253779665 0.4690339549547554 0.975 -0.3915
C1023 C 0.7402070060972442 0.4089014988453017 0.975 0.3915
C1024 C 0.7114257287390916 0.3540633564933805 0.975 -0.3915
C1025 C 0.6703571565278779 0.30770652140394816 0.975 0.3915
C1026 C 0.6193880456023328 0.2725250843321633 0.975 -0.3915
C1027 C 0.5614805354242689 0.25056366252131723 0.975 0.3915
C1028 C 0.5000000000000001 0.24309857398053605 0.975 -0.3915
C1029 C 0.4385194645757312 0.25056366252131723 0.975 0.3915
C1030 C 0.3806119543976672 0.27252508433216327 0.975 -0.3915
C1031 C 0.329642843472122 0.3077065214039483 0.975 0.3915
C1032 C 0.28857427126090845 0.3540633564933804 0.975 -0.3915
C1033 C 0.25979299390275573 0.4089014988453016 0.975 0.3915
C1034 C 0.24497167462203345 0.46903395495475525 0.975 -0.3915
C1035 C 0.24497167462203348 0.5309660450452449 0.975 0.3915
C1036 C 0.25979299390275573 0.5910985011546983 0.975 -0.3915
C1037 C 0.28857427126090834 0.6459366435066195 0.975 0.3915
C1038 C 0.329642843472122 0.6922934785960516 0.975 -0.3915
C1039 C 0.3806119543976672 0.7274749156678367 0.975 0.3915
C1040 C 0.4385194645757313 0.7494363374786829 0.975 -0.3915
