
    
#======================================================================

# CRYSTAL DATA

#----------------------------------------------------------------------

data_VESTA_phase_1


_chemical_name_common                  'XYZ file'
_cell_length_a                         30.8
_cell_length_b                         30.8
_cell_length_c                         30.8
_cell_angle_alpha                      90
_cell_angle_beta                       90
_cell_angle_gamma                      90
_symmetry_space_group_name_H-M    'P1'
_symmetry_Int_Tables_number       1
_symmetry_cell_setting            triclinic
loop_
_space_group_symop_operation_xyz
   'x, y, z'

loop_
   _atom_site_label
   _atom_site_occupancy
   _atom_site_fract_x
   _atom_site_fract_y
   _atom_site_fract_z
   _atom_site_charge
C1 C 0.5 0.6750704374010849 0.025 0.0
C2 C 0.5493230419563551 0.6679788545739576 0.025 0.0
C3 C 0.5946502243888315 0.6472786239579629 0.025 0.0
C4 C 0.6323094085478838 0.6146467551285966 0.025 0.0
C5 C 0.6592496713007371 0.5727268880292177 0.025 0.0
C6 C 0.6732884727790674 0.5249151209851688 0.025 0.0
C7 C 0.6732884727790674 0.4750848790148314 0.025 0.0
C8 C 0.6592496713007372 0.4272731119707824 0.025 0.0
C9 C 0.6323094085478838 0.38535324487140343 0.025 0.0
C10 C 0.5946502243888315 0.3527213760420372 0.025 0.0
C11 C 0.5493230419563552 0.33202114542604233 0.025 0.0
C12 C 0.5 0.32492956259891514 0.025 0.0
C13 C 0.45067695804364494 0.3320211454260423 0.025 0.0
C14 C 0.4053497756111684 0.3527213760420372 0.025 0.0
C15 C 0.36769059145211624 0.3853532448714034 0.025 0.0
C16 C 0.3407503286992628 0.4272731119707824 0.025 0.0
C17 C 0.3267115272209326 0.4750848790148313 0.025 0.0
C18 C 0.3267115272209325 0.5249151209851687 0.025 0.0
C19 C 0.34075032869926286 0.5727268880292178 0.025 0.0
C20 C 0.36769059145211624 0.6146467551285966 0.025 0.0
C21 C 0.40534977561116836 0.6472786239579629 0.025 0.0
C22 C 0.4506769580436449 0.6679788545739576 0.025 0.0
C23 C 0.5 0.7250704374010848 0.025 -0.0
C24 C 0.5634096697984267 0.7159535032546825 0.025 -0.0
C25 C 0.6216822652616114 0.6893413005995218 0.025 -0.0
C26 C 0.6700968872655966 0.6473897918258609 0.025 -0.0
C27 C 0.7047312710684631 0.5934976386793119 0.025 -0.0
C28 C 0.722779544873114 0.532030862898833 0.025 -0.0
C29 C 0.7227795448731141 0.46796913710116705 0.025 -0.0
C30 C 0.7047312710684631 0.40650236132068807 0.025 -0.0
C31 C 0.6700968872655966 0.35261020817413924 0.025 -0.0
C32 C 0.6216822652616114 0.3106586994004781 0.025 -0.0
C33 C 0.5634096697984268 0.28404649674531746 0.025 -0.0
C34 C 0.5 0.2749295625989151 0.025 -0.0
C35 C 0.43659033020157345 0.28404649674531746 0.025 -0.0
C36 C 0.3783177347383885 0.31065869940047813 0.025 -0.0
C37 C 0.3299031127344034 0.3526102081741392 0.025 -0.0
C38 C 0.2952687289315369 0.406502361320688 0.025 -0.0
C39 C 0.2772204551268859 0.46796913710116705 0.025 -0.0
C40 C 0.27722045512688587 0.532030862898833 0.025 -0.0
C41 C 0.29526872893153694 0.593497638679312 0.025 -0.0
C42 C 0.3299031127344034 0.6473897918258609 0.025 -0.0
C43 C 0.37831773473838837 0.6893413005995217 0.025 -0.0
C44 C 0.4365903302015734 0.7159535032546825 0.025 -0.0
C45 C 0.5 0.6750704374010849 0.075 -0.0
C46 C 0.5493230419563551 0.6679788545739576 0.075 -0.0
C47 C 0.5946502243888315 0.6472786239579629 0.075 -0.0
C48 C 0.6323094085478838 0.6146467551285966 0.075 -0.0
C49 C 0.6592496713007371 0.5727268880292177 0.075 -0.0
C50 C 0.6732884727790674 0.5249151209851688 0.075 -0.0
C51 C 0.6732884727790674 0.4750848790148314 0.075 -0.0
C52 C 0.6592496713007372 0.4272731119707824 0.075 -0.0
C53 C 0.6323094085478838 0.38535324487140343 0.075 -0.0
C54 C 0.5946502243888315 0.3527213760420372 0.075 -0.0
C55 C 0.5493230419563552 0.33202114542604233 0.075 -0.0
C56 C 0.5 0.32492956259891514 0.075 -0.0
C57 C 0.45067695804364494 0.3320211454260423 0.075 -0.0
C58 C 0.4053497756111684 0.3527213760420372 0.075 -0.0
C59 C 0.36769059145211624 0.3853532448714034 0.075 -0.0
C60 C 0.3407503286992628 0.4272731119707824 0.075 -0.0
C61 C 0.3267115272209326 0.4750848790148313 0.075 -0.0
C62 C 0.3267115272209325 0.5249151209851687 0.075 -0.0
C63 C 0.34075032869926286 0.5727268880292178 0.075 -0.0
C64 C 0.36769059145211624 0.6146467551285966 0.075 -0.0
C65 C 0.40534977561116836 0.6472786239579629 0.075 -0.0
C66 C 0.4506769580436449 0.6679788545739576 0.075 -0.0
C67 C 0.5 0.7250704374010848 0.075 0.0
C68 C 0.5634096697984267 0.7159535032546825 0.075 0.0
C69 C 0.6216822652616114 0.6893413005995218 0.075 0.0
C70 C 0.6700968872655966 0.6473897918258609 0.075 0.0
C71 C 0.7047312710684631 0.5934976386793119 0.075 0.0
C72 C 0.722779544873114 0.532030862898833 0.075 0.0
C73 C 0.7227795448731141 0.46796913710116705 0.075 0.0
C74 C 0.7047312710684631 0.40650236132068807 0.075 0.0
C75 C 0.6700968872655966 0.35261020817413924 0.075 0.0
C76 C 0.6216822652616114 0.3106586994004781 0.075 0.0
C77 C 0.5634096697984268 0.28404649674531746 0.075 0.0
C78 C 0.5 0.2749295625989151 0.075 0.0
C79 C 0.43659033020157345 0.28404649674531746 0.075 0.0
C80 C 0.3783177347383885 0.31065869940047813 0.075 0.0
C81 C 0.3299031127344034 0.3526102081741392 0.075 0.0
C82 C 0.2952687289315369 0.406502361320688 0.075 0.0
C83 C 0.2772204551268859 0.46796913710116705 0.075 0.0
C84 C 0.27722045512688587 0.532030862898833 0.075 0.0
C85 C 0.29526872893153694 0.593497638679312 0.075 0.0
C86 C 0.3299031127344034 0.6473897918258609 0.075 0.0
C87 C 0.37831773473838837 0.6893413005995217 0.075 0.0
C88 C 0.4365903302015734 0.7159535032546825 0.075 0.0
C89 C 0.5 0.6750704374010849 0.125 0.0
C90 C 0.5493230419563551 0.6679788545739576 0.125 0.0
C91 C 0.5946502243888315 0.6472786239579629 0.125 0.0
C92 C 0.6323094085478838 0.6146467551285966 0.125 0.0
C93 C 0.6592496713007371 0.5727268880292177 0.125 0.0
C94 C 0.6732884727790674 0.5249151209851688 0.125 0.0
C95 C 0.6732884727790674 0.4750848790148314 0.125 0.0
C96 C 0.6592496713007372 0.4272731119707824 0.125 0.0
C97 C 0.6323094085478838 0.38535324487140343 0.125 0.0
C98 C 0.5946502243888315 0.3527213760420372 0.125 0.0
C99 C 0.5493230419563552 0.33202114542604233 0.125 0.0
C100 C 0.5 0.32492956259891514 0.125 0.0
C101 C 0.45067695804364494 0.3320211454260423 0.125 0.0
C102 C 0.4053497756111684 0.3527213760420372 0.125 0.0
C103 C 0.36769059145211624 0.3853532448714034 0.125 0.0
C104 C 0.3407503286992628 0.4272731119707824 0.125 0.0
C105 C 0.3267115272209326 0.4750848790148313 0.125 0.0
C106 C 0.3267115272209325 0.5249151209851687 0.125 0.0
C107 C 0.34075032869926286 0.5727268880292178 0.125 0.0
C108 C 0.36769059145211624 0.6146467551285966 0.125 0.0
C109 C 0.40534977561116836 0.6472786239579629 0.125 0.0
C110 C 0.4506769580436449 0.6679788545739576 0.125 0.0
C111 C 0.5 0.7250704374010848 0.125 -0.0
C112 C 0.5634096697984267 0.7159535032546825 0.125 -0.0
C113 C 0.6216822652616114 0.6893413005995218 0.125 -0.0
C114 C 0.6700968872655966 0.6473897918258609 0.125 -0.0
C115 C 0.7047312710684631 0.5934976386793119 0.125 -0.0
C116 C 0.722779544873114 0.532030862898833 0.125 -0.0
C117 C 0.7227795448731141 0.46796913710116705 0.125 -0.0
C118 C 0.7047312710684631 0.40650236132068807 0.125 -0.0
C119 C 0.6700968872655966 0.35261020817413924 0.125 -0.0
C120 C 0.6216822652616114 0.3106586994004781 0.125 -0.0
C121 C 0.5634096697984268 0.28404649674531746 0.125 -0.0
C122 C 0.5 0.2749295625989151 0.125 -0.0
C123 C 0.43659033020157345 0.28404649674531746 0.125 -0.0
C124 C 0.3783177347383885 0.31065869940047813 0.125 -0.0
C125 C 0.3299031127344034 0.3526102081741392 0.125 -0.0
C126 C 0.2952687289315369 0.406502361320688 0.125 -0.0
C127 C 0.2772204551268859 0.46796913710116705 0.125 -0.0
C128 C 0.27722045512688587 0.532030862898833 0.125 -0.0
C129 C 0.29526872893153694 0.593497638679312 0.125 -0.0
C130 C 0.3299031127344034 0.6473897918258609 0.125 -0.0
C131 C 0.37831773473838837 0.6893413005995217 0.125 -0.0
C132 C 0.4365903302015734 0.7159535032546825 0.125 -0.0
C133 C 0.5 0.6750704374010849 0.17500000000000002 -0.0
C134 C 0.5493230419563551 0.6679788545739576 0.17500000000000002 -0.0
C135 C 0.5946502243888315 0.6472786239579629 0.17500000000000002 -0.0
C136 C 0.6323094085478838 0.6146467551285966 0.17500000000000002 -0.0
C137 C 0.6592496713007371 0.5727268880292177 0.17500000000000002 -0.0
C138 C 0.6732884727790674 0.5249151209851688 0.17500000000000002 -0.0
C139 C 0.6732884727790674 0.4750848790148314 0.17500000000000002 -0.0
C140 C 0.6592496713007372 0.4272731119707824 0.17500000000000002 -0.0
C141 C 0.6323094085478838 0.38535324487140343 0.17500000000000002 -0.0
C142 C 0.5946502243888315 0.3527213760420372 0.17500000000000002 -0.0
C143 C 0.5493230419563552 0.33202114542604233 0.17500000000000002 -0.0
C144 C 0.5 0.32492956259891514 0.17500000000000002 -0.0
C145 C 0.45067695804364494 0.3320211454260423 0.17500000000000002 -0.0
C146 C 0.4053497756111684 0.3527213760420372 0.17500000000000002 -0.0
C147 C 0.36769059145211624 0.3853532448714034 0.17500000000000002 -0.0
C148 C 0.3407503286992628 0.4272731119707824 0.17500000000000002 -0.0
C149 C 0.3267115272209326 0.4750848790148313 0.17500000000000002 -0.0
C150 C 0.3267115272209325 0.5249151209851687 0.17500000000000002 -0.0
C151 C 0.34075032869926286 0.5727268880292178 0.17500000000000002 -0.0
C152 C 0.36769059145211624 0.6146467551285966 0.17500000000000002 -0.0
C153 C 0.40534977561116836 0.6472786239579629 0.17500000000000002 -0.0
C154 C 0.4506769580436449 0.6679788545739576 0.17500000000000002 -0.0
C155 C 0.5 0.7250704374010848 0.17500000000000002 0.0
C156 C 0.5634096697984267 0.7159535032546825 0.17500000000000002 0.0
C157 C 0.6216822652616114 0.6893413005995218 0.17500000000000002 0.0
C158 C 0.6700968872655966 0.6473897918258609 0.17500000000000002 0.0
C159 C 0.7047312710684631 0.5934976386793119 0.17500000000000002 0.0
C160 C 0.722779544873114 0.532030862898833 0.17500000000000002 0.0
C161 C 0.7227795448731141 0.46796913710116705 0.17500000000000002 0.0
C162 C 0.7047312710684631 0.40650236132068807 0.17500000000000002 0.0
C163 C 0.6700968872655966 0.35261020817413924 0.17500000000000002 0.0
C164 C 0.6216822652616114 0.3106586994004781 0.17500000000000002 0.0
C165 C 0.5634096697984268 0.28404649674531746 0.17500000000000002 0.0
C166 C 0.5 0.2749295625989151 0.17500000000000002 0.0
C167 C 0.43659033020157345 0.28404649674531746 0.17500000000000002 0.0
C168 C 0.3783177347383885 0.31065869940047813 0.17500000000000002 0.0
C169 C 0.3299031127344034 0.3526102081741392 0.17500000000000002 0.0
C170 C 0.2952687289315369 0.406502361320688 0.17500000000000002 0.0
C171 C 0.2772204551268859 0.46796913710116705 0.17500000000000002 0.0
C172 C 0.27722045512688587 0.532030862898833 0.17500000000000002 0.0
C173 C 0.29526872893153694 0.593497638679312 0.17500000000000002 0.0
C174 C 0.3299031127344034 0.6473897918258609 0.17500000000000002 0.0
C175 C 0.37831773473838837 0.6893413005995217 0.17500000000000002 0.0
C176 C 0.4365903302015734 0.7159535032546825 0.17500000000000002 0.0
C177 C 0.5 0.6750704374010849 0.22499999999999998 0.0
C178 C 0.5493230419563551 0.6679788545739576 0.22499999999999998 0.0
C179 C 0.5946502243888315 0.6472786239579629 0.22499999999999998 0.0
C180 C 0.6323094085478838 0.6146467551285966 0.22499999999999998 0.0
C181 C 0.6592496713007371 0.5727268880292177 0.22499999999999998 0.0
C182 C 0.6732884727790674 0.5249151209851688 0.22499999999999998 0.0
C183 C 0.6732884727790674 0.4750848790148314 0.22499999999999998 0.0
C184 C 0.6592496713007372 0.4272731119707824 0.22499999999999998 0.0
C185 C 0.6323094085478838 0.38535324487140343 0.22499999999999998 0.0
C186 C 0.5946502243888315 0.3527213760420372 0.22499999999999998 0.0
C187 C 0.5493230419563552 0.33202114542604233 0.22499999999999998 0.0
C188 C 0.5 0.32492956259891514 0.22499999999999998 0.0
C189 C 0.45067695804364494 0.3320211454260423 0.22499999999999998 0.0
C190 C 0.4053497756111684 0.3527213760420372 0.22499999999999998 0.0
C191 C 0.36769059145211624 0.3853532448714034 0.22499999999999998 0.0
C192 C 0.3407503286992628 0.4272731119707824 0.22499999999999998 0.0
C193 C 0.3267115272209326 0.4750848790148313 0.22499999999999998 0.0
C194 C 0.3267115272209325 0.5249151209851687 0.22499999999999998 0.0
C195 C 0.34075032869926286 0.5727268880292178 0.22499999999999998 0.0
C196 C 0.36769059145211624 0.6146467551285966 0.22499999999999998 0.0
C197 C 0.40534977561116836 0.6472786239579629 0.22499999999999998 0.0
C198 C 0.4506769580436449 0.6679788545739576 0.22499999999999998 0.0
C199 C 0.5 0.7250704374010848 0.22499999999999998 -0.0
C200 C 0.5634096697984267 0.7159535032546825 0.22499999999999998 -0.0
C201 C 0.6216822652616114 0.6893413005995218 0.22499999999999998 -0.0
C202 C 0.6700968872655966 0.6473897918258609 0.22499999999999998 -0.0
C203 C 0.7047312710684631 0.5934976386793119 0.22499999999999998 -0.0
C204 C 0.722779544873114 0.532030862898833 0.22499999999999998 -0.0
C205 C 0.7227795448731141 0.46796913710116705 0.22499999999999998 -0.0
C206 C 0.7047312710684631 0.40650236132068807 0.22499999999999998 -0.0
C207 C 0.6700968872655966 0.35261020817413924 0.22499999999999998 -0.0
C208 C 0.6216822652616114 0.3106586994004781 0.22499999999999998 -0.0
C209 C 0.5634096697984268 0.28404649674531746 0.22499999999999998 -0.0
C210 C 0.5 0.2749295625989151 0.22499999999999998 -0.0
C211 C 0.43659033020157345 0.28404649674531746 0.22499999999999998 -0.0
C212 C 0.3783177347383885 0.31065869940047813 0.22499999999999998 -0.0
C213 C 0.3299031127344034 0.3526102081741392 0.22499999999999998 -0.0
C214 C 0.2952687289315369 0.406502361320688 0.22499999999999998 -0.0
C215 C 0.2772204551268859 0.46796913710116705 0.22499999999999998 -0.0
C216 C 0.27722045512688587 0.532030862898833 0.22499999999999998 -0.0
C217 C 0.29526872893153694 0.593497638679312 0.22499999999999998 -0.0
C218 C 0.3299031127344034 0.6473897918258609 0.22499999999999998 -0.0
C219 C 0.37831773473838837 0.6893413005995217 0.22499999999999998 -0.0
C220 C 0.4365903302015734 0.7159535032546825 0.22499999999999998 -0.0
C221 C 0.5 0.6750704374010849 0.275 -0.0
C222 C 0.5493230419563551 0.6679788545739576 0.275 -0.0
C223 C 0.5946502243888315 0.6472786239579629 0.275 -0.0
C224 C 0.6323094085478838 0.6146467551285966 0.275 -0.0
C225 C 0.6592496713007371 0.5727268880292177 0.275 -0.0
C226 C 0.6732884727790674 0.5249151209851688 0.275 -0.0
C227 C 0.6732884727790674 0.4750848790148314 0.275 -0.0
C228 C 0.6592496713007372 0.4272731119707824 0.275 -0.0
C229 C 0.6323094085478838 0.38535324487140343 0.275 -0.0
C230 C 0.5946502243888315 0.3527213760420372 0.275 -0.0
C231 C 0.5493230419563552 0.33202114542604233 0.275 -0.0
C232 C 0.5 0.32492956259891514 0.275 -0.0
C233 C 0.45067695804364494 0.3320211454260423 0.275 -0.0
C234 C 0.4053497756111684 0.3527213760420372 0.275 -0.0
C235 C 0.36769059145211624 0.3853532448714034 0.275 -0.0
C236 C 0.3407503286992628 0.4272731119707824 0.275 -0.0
C237 C 0.3267115272209326 0.4750848790148313 0.275 -0.0
C238 C 0.3267115272209325 0.5249151209851687 0.275 -0.0
C239 C 0.34075032869926286 0.5727268880292178 0.275 -0.0
C240 C 0.36769059145211624 0.6146467551285966 0.275 -0.0
C241 C 0.40534977561116836 0.6472786239579629 0.275 -0.0
C242 C 0.4506769580436449 0.6679788545739576 0.275 -0.0
C243 C 0.5 0.7250704374010848 0.275 0.0
C244 C 0.5634096697984267 0.7159535032546825 0.275 0.0
C245 C 0.6216822652616114 0.6893413005995218 0.275 0.0
C246 C 0.6700968872655966 0.6473897918258609 0.275 0.0
C247 C 0.7047312710684631 0.5934976386793119 0.275 0.0
C248 C 0.722779544873114 0.532030862898833 0.275 0.0
C249 C 0.7227795448731141 0.46796913710116705 0.275 0.0
C250 C 0.7047312710684631 0.40650236132068807 0.275 0.0
C251 C 0.6700968872655966 0.35261020817413924 0.275 0.0
C252 C 0.6216822652616114 0.3106586994004781 0.275 0.0
C253 C 0.5634096697984268 0.28404649674531746 0.275 0.0
C254 C 0.5 0.2749295625989151 0.275 0.0
C255 C 0.43659033020157345 0.28404649674531746 0.275 0.0
C256 C 0.3783177347383885 0.31065869940047813 0.275 0.0
C257 C 0.3299031127344034 0.3526102081741392 0.275 0.0
C258 C 0.2952687289315369 0.406502361320688 0.275 0.0
C259 C 0.2772204551268859 0.46796913710116705 0.275 0.0
C260 C 0.27722045512688587 0.532030862898833 0.275 0.0
C261 C 0.29526872893153694 0.593497638679312 0.275 0.0
C262 C 0.3299031127344034 0.6473897918258609 0.275 0.0
C263 C 0.37831773473838837 0.6893413005995217 0.275 0.0
C264 C 0.4365903302015734 0.7159535032546825 0.275 0.0
C265 C 0.5 0.6750704374010849 0.325 0.0
C266 C 0.5493230419563551 0.6679788545739576 0.325 0.0
C267 C 0.5946502243888315 0.6472786239579629 0.325 0.0
C268 C 0.6323094085478838 0.6146467551285966 0.325 0.0
C269 C 0.6592496713007371 0.5727268880292177 0.325 0.0
C270 C 0.6732884727790674 0.5249151209851688 0.325 0.0
C271 C 0.6732884727790674 0.4750848790148314 0.325 0.0
C272 C 0.6592496713007372 0.4272731119707824 0.325 0.0
C273 C 0.6323094085478838 0.38535324487140343 0.325 0.0
C274 C 0.5946502243888315 0.3527213760420372 0.325 0.0
C275 C 0.5493230419563552 0.33202114542604233 0.325 0.0
C276 C 0.5 0.32492956259891514 0.325 0.0
C277 C 0.45067695804364494 0.3320211454260423 0.325 0.0
C278 C 0.4053497756111684 0.3527213760420372 0.325 0.0
C279 C 0.36769059145211624 0.3853532448714034 0.325 0.0
C280 C 0.3407503286992628 0.4272731119707824 0.325 0.0
C281 C 0.3267115272209326 0.4750848790148313 0.325 0.0
C282 C 0.3267115272209325 0.5249151209851687 0.325 0.0
C283 C 0.34075032869926286 0.5727268880292178 0.325 0.0
C284 C 0.36769059145211624 0.6146467551285966 0.325 0.0
C285 C 0.40534977561116836 0.6472786239579629 0.325 0.0
C286 C 0.4506769580436449 0.6679788545739576 0.325 0.0
C287 C 0.5 0.7250704374010848 0.325 -0.0
C288 C 0.5634096697984267 0.7159535032546825 0.325 -0.0
C289 C 0.6216822652616114 0.6893413005995218 0.325 -0.0
C290 C 0.6700968872655966 0.6473897918258609 0.325 -0.0
C291 C 0.7047312710684631 0.5934976386793119 0.325 -0.0
C292 C 0.722779544873114 0.532030862898833 0.325 -0.0
C293 C 0.7227795448731141 0.46796913710116705 0.325 -0.0
C294 C 0.7047312710684631 0.40650236132068807 0.325 -0.0
C295 C 0.6700968872655966 0.35261020817413924 0.325 -0.0
C296 C 0.6216822652616114 0.3106586994004781 0.325 -0.0
C297 C 0.5634096697984268 0.28404649674531746 0.325 -0.0
C298 C 0.5 0.2749295625989151 0.325 -0.0
C299 C 0.43659033020157345 0.28404649674531746 0.325 -0.0
C300 C 0.3783177347383885 0.31065869940047813 0.325 -0.0
C301 C 0.3299031127344034 0.3526102081741392 0.325 -0.0
C302 C 0.2952687289315369 0.406502361320688 0.325 -0.0
C303 C 0.2772204551268859 0.46796913710116705 0.325 -0.0
C304 C 0.27722045512688587 0.532030862898833 0.325 -0.0
C305 C 0.29526872893153694 0.593497638679312 0.325 -0.0
C306 C 0.3299031127344034 0.6473897918258609 0.325 -0.0
C307 C 0.37831773473838837 0.6893413005995217 0.325 -0.0
C308 C 0.4365903302015734 0.7159535032546825 0.325 -0.0
C309 C 0.5 0.6750704374010849 0.375 -0.0
C310 C 0.5493230419563551 0.6679788545739576 0.375 -0.0
C311 C 0.5946502243888315 0.6472786239579629 0.375 -0.0
C312 C 0.6323094085478838 0.6146467551285966 0.375 -0.0
C313 C 0.6592496713007371 0.5727268880292177 0.375 -0.0
C314 C 0.6732884727790674 0.5249151209851688 0.375 -0.0
C315 C 0.6732884727790674 0.4750848790148314 0.375 -0.0
C316 C 0.6592496713007372 0.4272731119707824 0.375 -0.0
C317 C 0.6323094085478838 0.38535324487140343 0.375 -0.0
C318 C 0.5946502243888315 0.3527213760420372 0.375 -0.0
C319 C 0.5493230419563552 0.33202114542604233 0.375 -0.0
C320 C 0.5 0.32492956259891514 0.375 -0.0
C321 C 0.45067695804364494 0.3320211454260423 0.375 -0.0
C322 C 0.4053497756111684 0.3527213760420372 0.375 -0.0
C323 C 0.36769059145211624 0.3853532448714034 0.375 -0.0
C324 C 0.3407503286992628 0.4272731119707824 0.375 -0.0
C325 C 0.3267115272209326 0.4750848790148313 0.375 -0.0
C326 C 0.3267115272209325 0.5249151209851687 0.375 -0.0
C327 C 0.34075032869926286 0.5727268880292178 0.375 -0.0
C328 C 0.36769059145211624 0.6146467551285966 0.375 -0.0
C329 C 0.40534977561116836 0.6472786239579629 0.375 -0.0
C330 C 0.4506769580436449 0.6679788545739576 0.375 -0.0
C331 C 0.5 0.7250704374010848 0.375 0.0
C332 C 0.5634096697984267 0.7159535032546825 0.375 0.0
C333 C 0.6216822652616114 0.6893413005995218 0.375 0.0
C334 C 0.6700968872655966 0.6473897918258609 0.375 0.0
C335 C 0.7047312710684631 0.5934976386793119 0.375 0.0
C336 C 0.722779544873114 0.532030862898833 0.375 0.0
C337 C 0.7227795448731141 0.46796913710116705 0.375 0.0
C338 C 0.7047312710684631 0.40650236132068807 0.375 0.0
C339 C 0.6700968872655966 0.35261020817413924 0.375 0.0
C340 C 0.6216822652616114 0.3106586994004781 0.375 0.0
C341 C 0.5634096697984268 0.28404649674531746 0.375 0.0
C342 C 0.5 0.2749295625989151 0.375 0.0
C343 C 0.43659033020157345 0.28404649674531746 0.375 0.0
C344 C 0.3783177347383885 0.31065869940047813 0.375 0.0
C345 C 0.3299031127344034 0.3526102081741392 0.375 0.0
C346 C 0.2952687289315369 0.406502361320688 0.375 0.0
C347 C 0.2772204551268859 0.46796913710116705 0.375 0.0
C348 C 0.27722045512688587 0.532030862898833 0.375 0.0
C349 C 0.29526872893153694 0.593497638679312 0.375 0.0
C350 C 0.3299031127344034 0.6473897918258609 0.375 0.0
C351 C 0.37831773473838837 0.6893413005995217 0.375 0.0
C352 C 0.4365903302015734 0.7159535032546825 0.375 0.0
C353 C 0.5 0.6750704374010849 0.425 0.0
C354 C 0.5493230419563551 0.6679788545739576 0.425 0.0
C355 C 0.5946502243888315 0.6472786239579629 0.425 0.0
C356 C 0.6323094085478838 0.6146467551285966 0.425 0.0
C357 C 0.6592496713007371 0.5727268880292177 0.425 0.0
C358 C 0.6732884727790674 0.5249151209851688 0.425 0.0
C359 C 0.6732884727790674 0.4750848790148314 0.425 0.0
C360 C 0.6592496713007372 0.4272731119707824 0.425 0.0
C361 C 0.6323094085478838 0.38535324487140343 0.425 0.0
C362 C 0.5946502243888315 0.3527213760420372 0.425 0.0
C363 C 0.5493230419563552 0.33202114542604233 0.425 0.0
C364 C 0.5 0.32492956259891514 0.425 0.0
C365 C 0.45067695804364494 0.3320211454260423 0.425 0.0
C366 C 0.4053497756111684 0.3527213760420372 0.425 0.0
C367 C 0.36769059145211624 0.3853532448714034 0.425 0.0
C368 C 0.3407503286992628 0.4272731119707824 0.425 0.0
C369 C 0.3267115272209326 0.4750848790148313 0.425 0.0
C370 C 0.3267115272209325 0.5249151209851687 0.425 0.0
C371 C 0.34075032869926286 0.5727268880292178 0.425 0.0
C372 C 0.36769059145211624 0.6146467551285966 0.425 0.0
C373 C 0.40534977561116836 0.6472786239579629 0.425 0.0
C374 C 0.4506769580436449 0.6679788545739576 0.425 0.0
C375 C 0.5 0.7250704374010848 0.425 -0.0
C376 C 0.5634096697984267 0.7159535032546825 0.425 -0.0
C377 C 0.6216822652616114 0.6893413005995218 0.425 -0.0
C378 C 0.6700968872655966 0.6473897918258609 0.425 -0.0
C379 C 0.7047312710684631 0.5934976386793119 0.425 -0.0
C380 C 0.722779544873114 0.532030862898833 0.425 -0.0
C381 C 0.7227795448731141 0.46796913710116705 0.425 -0.0
C382 C 0.7047312710684631 0.40650236132068807 0.425 -0.0
C383 C 0.6700968872655966 0.35261020817413924 0.425 -0.0
C384 C 0.6216822652616114 0.3106586994004781 0.425 -0.0
C385 C 0.5634096697984268 0.28404649674531746 0.425 -0.0
C386 C 0.5 0.2749295625989151 0.425 -0.0
C387 C 0.43659033020157345 0.28404649674531746 0.425 -0.0
C388 C 0.3783177347383885 0.31065869940047813 0.425 -0.0
C389 C 0.3299031127344034 0.3526102081741392 0.425 -0.0
C390 C 0.2952687289315369 0.406502361320688 0.425 -0.0
C391 C 0.2772204551268859 0.46796913710116705 0.425 -0.0
C392 C 0.27722045512688587 0.532030862898833 0.425 -0.0
C393 C 0.29526872893153694 0.593497638679312 0.425 -0.0
C394 C 0.3299031127344034 0.6473897918258609 0.425 -0.0
C395 C 0.37831773473838837 0.6893413005995217 0.425 -0.0
C396 C 0.4365903302015734 0.7159535032546825 0.425 -0.0
C397 C 0.5 0.6750704374010849 0.475 -0.0
C398 C 0.5493230419563551 0.6679788545739576 0.475 -0.0
C399 C 0.5946502243888315 0.6472786239579629 0.475 -0.0
C400 C 0.6323094085478838 0.6146467551285966 0.475 -0.0
C401 C 0.6592496713007371 0.5727268880292177 0.475 -0.0
C402 C 0.6732884727790674 0.5249151209851688 0.475 -0.0
C403 C 0.6732884727790674 0.4750848790148314 0.475 -0.0
C404 C 0.6592496713007372 0.4272731119707824 0.475 -0.0
C405 C 0.6323094085478838 0.38535324487140343 0.475 -0.0
C406 C 0.5946502243888315 0.3527213760420372 0.475 -0.0
C407 C 0.5493230419563552 0.33202114542604233 0.475 -0.0
C408 C 0.5 0.32492956259891514 0.475 -0.0
C409 C 0.45067695804364494 0.3320211454260423 0.475 -0.0
C410 C 0.4053497756111684 0.3527213760420372 0.475 -0.0
C411 C 0.36769059145211624 0.3853532448714034 0.475 -0.0
C412 C 0.3407503286992628 0.4272731119707824 0.475 -0.0
C413 C 0.3267115272209326 0.4750848790148313 0.475 -0.0
C414 C 0.3267115272209325 0.5249151209851687 0.475 -0.0
C415 C 0.34075032869926286 0.5727268880292178 0.475 -0.0
C416 C 0.36769059145211624 0.6146467551285966 0.475 -0.0
C417 C 0.40534977561116836 0.6472786239579629 0.475 -0.0
C418 C 0.4506769580436449 0.6679788545739576 0.475 -0.0
C419 C 0.5 0.7250704374010848 0.475 0.0
C420 C 0.5634096697984267 0.7159535032546825 0.475 0.0
C421 C 0.6216822652616114 0.6893413005995218 0.475 0.0
C422 C 0.6700968872655966 0.6473897918258609 0.475 0.0
C423 C 0.7047312710684631 0.5934976386793119 0.475 0.0
C424 C 0.722779544873114 0.532030862898833 0.475 0.0
C425 C 0.7227795448731141 0.46796913710116705 0.475 0.0
C426 C 0.7047312710684631 0.40650236132068807 0.475 0.0
C427 C 0.6700968872655966 0.35261020817413924 0.475 0.0
C428 C 0.6216822652616114 0.3106586994004781 0.475 0.0
C429 C 0.5634096697984268 0.28404649674531746 0.475 0.0
C430 C 0.5 0.2749295625989151 0.475 0.0
C431 C 0.43659033020157345 0.28404649674531746 0.475 0.0
C432 C 0.3783177347383885 0.31065869940047813 0.475 0.0
C433 C 0.3299031127344034 0.3526102081741392 0.475 0.0
C434 C 0.2952687289315369 0.406502361320688 0.475 0.0
C435 C 0.2772204551268859 0.46796913710116705 0.475 0.0
C436 C 0.27722045512688587 0.532030862898833 0.475 0.0
C437 C 0.29526872893153694 0.593497638679312 0.475 0.0
C438 C 0.3299031127344034 0.6473897918258609 0.475 0.0
C439 C 0.37831773473838837 0.6893413005995217 0.475 0.0
C440 C 0.4365903302015734 0.7159535032546825 0.475 0.0
C441 C 0.5 0.6750704374010849 0.525 0.0
C442 C 0.5493230419563551 0.6679788545739576 0.525 0.0
C443 C 0.5946502243888315 0.6472786239579629 0.525 0.0
C444 C 0.6323094085478838 0.6146467551285966 0.525 0.0
C445 C 0.6592496713007371 0.5727268880292177 0.525 0.0
C446 C 0.6732884727790674 0.5249151209851688 0.525 0.0
C447 C 0.6732884727790674 0.4750848790148314 0.525 0.0
C448 C 0.6592496713007372 0.4272731119707824 0.525 0.0
C449 C 0.6323094085478838 0.38535324487140343 0.525 0.0
C450 C 0.5946502243888315 0.3527213760420372 0.525 0.0
C451 C 0.5493230419563552 0.33202114542604233 0.525 0.0
C452 C 0.5 0.32492956259891514 0.525 0.0
C453 C 0.45067695804364494 0.3320211454260423 0.525 0.0
C454 C 0.4053497756111684 0.3527213760420372 0.525 0.0
C455 C 0.36769059145211624 0.3853532448714034 0.525 0.0
C456 C 0.3407503286992628 0.4272731119707824 0.525 0.0
C457 C 0.3267115272209326 0.4750848790148313 0.525 0.0
C458 C 0.3267115272209325 0.5249151209851687 0.525 0.0
C459 C 0.34075032869926286 0.5727268880292178 0.525 0.0
C460 C 0.36769059145211624 0.6146467551285966 0.525 0.0
C461 C 0.40534977561116836 0.6472786239579629 0.525 0.0
C462 C 0.4506769580436449 0.6679788545739576 0.525 0.0
C463 C 0.5 0.7250704374010848 0.525 -0.0
C464 C 0.5634096697984267 0.7159535032546825 0.525 -0.0
C465 C 0.6216822652616114 0.6893413005995218 0.525 -0.0
C466 C 0.6700968872655966 0.6473897918258609 0.525 -0.0
C467 C 0.7047312710684631 0.5934976386793119 0.525 -0.0
C468 C 0.722779544873114 0.532030862898833 0.525 -0.0
C469 C 0.7227795448731141 0.46796913710116705 0.525 -0.0
C470 C 0.7047312710684631 0.40650236132068807 0.525 -0.0
C471 C 0.6700968872655966 0.35261020817413924 0.525 -0.0
C472 C 0.6216822652616114 0.3106586994004781 0.525 -0.0
C473 C 0.5634096697984268 0.28404649674531746 0.525 -0.0
C474 C 0.5 0.2749295625989151 0.525 -0.0
C475 C 0.43659033020157345 0.28404649674531746 0.525 -0.0
C476 C 0.3783177347383885 0.31065869940047813 0.525 -0.0
C477 C 0.3299031127344034 0.3526102081741392 0.525 -0.0
C478 C 0.2952687289315369 0.406502361320688 0.525 -0.0
C479 C 0.2772204551268859 0.46796913710116705 0.525 -0.0
C480 C 0.27722045512688587 0.532030862898833 0.525 -0.0
C481 C 0.29526872893153694 0.593497638679312 0.525 -0.0
C482 C 0.3299031127344034 0.6473897918258609 0.525 -0.0
C483 C 0.37831773473838837 0.6893413005995217 0.525 -0.0
C484 C 0.4365903302015734 0.7159535032546825 0.525 -0.0
C485 C 0.5 0.6750704374010849 0.5750000000000001 -0.0
C486 C 0.5493230419563551 0.6679788545739576 0.5750000000000001 -0.0
C487 C 0.5946502243888315 0.6472786239579629 0.5750000000000001 -0.0
C488 C 0.6323094085478838 0.6146467551285966 0.5750000000000001 -0.0
C489 C 0.6592496713007371 0.5727268880292177 0.5750000000000001 -0.0
C490 C 0.6732884727790674 0.5249151209851688 0.5750000000000001 -0.0
C491 C 0.6732884727790674 0.4750848790148314 0.5750000000000001 -0.0
C492 C 0.6592496713007372 0.4272731119707824 0.5750000000000001 -0.0
C493 C 0.6323094085478838 0.38535324487140343 0.5750000000000001 -0.0
C494 C 0.5946502243888315 0.3527213760420372 0.5750000000000001 -0.0
C495 C 0.5493230419563552 0.33202114542604233 0.5750000000000001 -0.0
C496 C 0.5 0.32492956259891514 0.5750000000000001 -0.0
C497 C 0.45067695804364494 0.3320211454260423 0.5750000000000001 -0.0
C498 C 0.4053497756111684 0.3527213760420372 0.5750000000000001 -0.0
C499 C 0.36769059145211624 0.3853532448714034 0.5750000000000001 -0.0
C500 C 0.3407503286992628 0.4272731119707824 0.5750000000000001 -0.0
C501 C 0.3267115272209326 0.4750848790148313 0.5750000000000001 -0.0
C502 C 0.3267115272209325 0.5249151209851687 0.5750000000000001 -0.0
C503 C 0.34075032869926286 0.5727268880292178 0.5750000000000001 -0.0
C504 C 0.36769059145211624 0.6146467551285966 0.5750000000000001 -0.0
C505 C 0.40534977561116836 0.6472786239579629 0.5750000000000001 -0.0
C506 C 0.4506769580436449 0.6679788545739576 0.5750000000000001 -0.0
C507 C 0.5 0.7250704374010848 0.5750000000000001 0.0
C508 C 0.5634096697984267 0.7159535032546825 0.5750000000000001 0.0
C509 C 0.6216822652616114 0.6893413005995218 0.5750000000000001 0.0
C510 C 0.6700968872655966 0.6473897918258609 0.5750000000000001 0.0
C511 C 0.7047312710684631 0.5934976386793119 0.5750000000000001 0.0
C512 C 0.722779544873114 0.532030862898833 0.5750000000000001 0.0
C513 C 0.7227795448731141 0.46796913710116705 0.5750000000000001 0.0
C514 C 0.7047312710684631 0.40650236132068807 0.5750000000000001 0.0
C515 C 0.6700968872655966 0.35261020817413924 0.5750000000000001 0.0
C516 C 0.6216822652616114 0.3106586994004781 0.5750000000000001 0.0
C517 C 0.5634096697984268 0.28404649674531746 0.5750000000000001 0.0
C518 C 0.5 0.2749295625989151 0.5750000000000001 0.0
C519 C 0.43659033020157345 0.28404649674531746 0.5750000000000001 0.0
C520 C 0.3783177347383885 0.31065869940047813 0.5750000000000001 0.0
C521 C 0.3299031127344034 0.3526102081741392 0.5750000000000001 0.0
C522 C 0.2952687289315369 0.406502361320688 0.5750000000000001 0.0
C523 C 0.2772204551268859 0.46796913710116705 0.5750000000000001 0.0
C524 C 0.27722045512688587 0.532030862898833 0.5750000000000001 0.0
C525 C 0.29526872893153694 0.593497638679312 0.5750000000000001 0.0
C526 C 0.3299031127344034 0.6473897918258609 0.5750000000000001 0.0
C527 C 0.37831773473838837 0.6893413005995217 0.5750000000000001 0.0
C528 C 0.4365903302015734 0.7159535032546825 0.5750000000000001 0.0
C529 C 0.5 0.6750704374010849 0.625 0.0
C530 C 0.5493230419563551 0.6679788545739576 0.625 0.0
C531 C 0.5946502243888315 0.6472786239579629 0.625 0.0
C532 C 0.6323094085478838 0.6146467551285966 0.625 0.0
C533 C 0.6592496713007371 0.5727268880292177 0.625 0.0
C534 C 0.6732884727790674 0.5249151209851688 0.625 0.0
C535 C 0.6732884727790674 0.4750848790148314 0.625 0.0
C536 C 0.6592496713007372 0.4272731119707824 0.625 0.0
C537 C 0.6323094085478838 0.38535324487140343 0.625 0.0
C538 C 0.5946502243888315 0.3527213760420372 0.625 0.0
C539 C 0.5493230419563552 0.33202114542604233 0.625 0.0
C540 C 0.5 0.32492956259891514 0.625 0.0
C541 C 0.45067695804364494 0.3320211454260423 0.625 0.0
C542 C 0.4053497756111684 0.3527213760420372 0.625 0.0
C543 C 0.36769059145211624 0.3853532448714034 0.625 0.0
C544 C 0.3407503286992628 0.4272731119707824 0.625 0.0
C545 C 0.3267115272209326 0.4750848790148313 0.625 0.0
C546 C 0.3267115272209325 0.5249151209851687 0.625 0.0
C547 C 0.34075032869926286 0.5727268880292178 0.625 0.0
C548 C 0.36769059145211624 0.6146467551285966 0.625 0.0
C549 C 0.40534977561116836 0.6472786239579629 0.625 0.0
C550 C 0.4506769580436449 0.6679788545739576 0.625 0.0
C551 C 0.5 0.7250704374010848 0.625 -0.0
C552 C 0.5634096697984267 0.7159535032546825 0.625 -0.0
C553 C 0.6216822652616114 0.6893413005995218 0.625 -0.0
C554 C 0.6700968872655966 0.6473897918258609 0.625 -0.0
C555 C 0.7047312710684631 0.5934976386793119 0.625 -0.0
C556 C 0.722779544873114 0.532030862898833 0.625 -0.0
C557 C 0.7227795448731141 0.46796913710116705 0.625 -0.0
C558 C 0.7047312710684631 0.40650236132068807 0.625 -0.0
C559 C 0.6700968872655966 0.35261020817413924 0.625 -0.0
C560 C 0.6216822652616114 0.3106586994004781 0.625 -0.0
C561 C 0.5634096697984268 0.28404649674531746 0.625 -0.0
C562 C 0.5 0.2749295625989151 0.625 -0.0
C563 C 0.43659033020157345 0.28404649674531746 0.625 -0.0
C564 C 0.3783177347383885 0.31065869940047813 0.625 -0.0
C565 C 0.3299031127344034 0.3526102081741392 0.625 -0.0
C566 C 0.2952687289315369 0.406502361320688 0.625 -0.0
C567 C 0.2772204551268859 0.46796913710116705 0.625 -0.0
C568 C 0.27722045512688587 0.532030862898833 0.625 -0.0
C569 C 0.29526872893153694 0.593497638679312 0.625 -0.0
C570 C 0.3299031127344034 0.6473897918258609 0.625 -0.0
C571 C 0.37831773473838837 0.6893413005995217 0.625 -0.0
C572 C 0.4365903302015734 0.7159535032546825 0.625 -0.0
C573 C 0.5 0.6750704374010849 0.6749999999999999 -0.0
C574 C 0.5493230419563551 0.6679788545739576 0.6749999999999999 -0.0
C575 C 0.5946502243888315 0.6472786239579629 0.6749999999999999 -0.0
C576 C 0.6323094085478838 0.6146467551285966 0.6749999999999999 -0.0
C577 C 0.6592496713007371 0.5727268880292177 0.6749999999999999 -0.0
C578 C 0.6732884727790674 0.5249151209851688 0.6749999999999999 -0.0
C579 C 0.6732884727790674 0.4750848790148314 0.6749999999999999 -0.0
C580 C 0.6592496713007372 0.4272731119707824 0.6749999999999999 -0.0
C581 C 0.6323094085478838 0.38535324487140343 0.6749999999999999 -0.0
C582 C 0.5946502243888315 0.3527213760420372 0.6749999999999999 -0.0
C583 C 0.5493230419563552 0.33202114542604233 0.6749999999999999 -0.0
C584 C 0.5 0.32492956259891514 0.6749999999999999 -0.0
C585 C 0.45067695804364494 0.3320211454260423 0.6749999999999999 -0.0
C586 C 0.4053497756111684 0.3527213760420372 0.6749999999999999 -0.0
C587 C 0.36769059145211624 0.3853532448714034 0.6749999999999999 -0.0
C588 C 0.3407503286992628 0.4272731119707824 0.6749999999999999 -0.0
C589 C 0.3267115272209326 0.4750848790148313 0.6749999999999999 -0.0
C590 C 0.3267115272209325 0.5249151209851687 0.6749999999999999 -0.0
C591 C 0.34075032869926286 0.5727268880292178 0.6749999999999999 -0.0
C592 C 0.36769059145211624 0.6146467551285966 0.6749999999999999 -0.0
C593 C 0.40534977561116836 0.6472786239579629 0.6749999999999999 -0.0
C594 C 0.4506769580436449 0.6679788545739576 0.6749999999999999 -0.0
C595 C 0.5 0.7250704374010848 0.6749999999999999 0.0
C596 C 0.5634096697984267 0.7159535032546825 0.6749999999999999 0.0
C597 C 0.6216822652616114 0.6893413005995218 0.6749999999999999 0.0
C598 C 0.6700968872655966 0.6473897918258609 0.6749999999999999 0.0
C599 C 0.7047312710684631 0.5934976386793119 0.6749999999999999 0.0
C600 C 0.722779544873114 0.532030862898833 0.6749999999999999 0.0
C601 C 0.7227795448731141 0.46796913710116705 0.6749999999999999 0.0
C602 C 0.7047312710684631 0.40650236132068807 0.6749999999999999 0.0
C603 C 0.6700968872655966 0.35261020817413924 0.6749999999999999 0.0
C604 C 0.6216822652616114 0.3106586994004781 0.6749999999999999 0.0
C605 C 0.5634096697984268 0.28404649674531746 0.6749999999999999 0.0
C606 C 0.5 0.2749295625989151 0.6749999999999999 0.0
C607 C 0.43659033020157345 0.28404649674531746 0.6749999999999999 0.0
C608 C 0.3783177347383885 0.31065869940047813 0.6749999999999999 0.0
C609 C 0.3299031127344034 0.3526102081741392 0.6749999999999999 0.0
C610 C 0.2952687289315369 0.406502361320688 0.6749999999999999 0.0
C611 C 0.2772204551268859 0.46796913710116705 0.6749999999999999 0.0
C612 C 0.27722045512688587 0.532030862898833 0.6749999999999999 0.0
C613 C 0.29526872893153694 0.593497638679312 0.6749999999999999 0.0
C614 C 0.3299031127344034 0.6473897918258609 0.6749999999999999 0.0
C615 C 0.37831773473838837 0.6893413005995217 0.6749999999999999 0.0
C616 C 0.4365903302015734 0.7159535032546825 0.6749999999999999 0.0
C617 C 0.5 0.6750704374010849 0.7250000000000001 0.0
C618 C 0.5493230419563551 0.6679788545739576 0.7250000000000001 0.0
C619 C 0.5946502243888315 0.6472786239579629 0.7250000000000001 0.0
C620 C 0.6323094085478838 0.6146467551285966 0.7250000000000001 0.0
C621 C 0.6592496713007371 0.5727268880292177 0.7250000000000001 0.0
C622 C 0.6732884727790674 0.5249151209851688 0.7250000000000001 0.0
C623 C 0.6732884727790674 0.4750848790148314 0.7250000000000001 0.0
C624 C 0.6592496713007372 0.4272731119707824 0.7250000000000001 0.0
C625 C 0.6323094085478838 0.38535324487140343 0.7250000000000001 0.0
C626 C 0.5946502243888315 0.3527213760420372 0.7250000000000001 0.0
C627 C 0.5493230419563552 0.33202114542604233 0.7250000000000001 0.0
C628 C 0.5 0.32492956259891514 0.7250000000000001 0.0
C629 C 0.45067695804364494 0.3320211454260423 0.7250000000000001 0.0
C630 C 0.4053497756111684 0.3527213760420372 0.7250000000000001 0.0
C631 C 0.36769059145211624 0.3853532448714034 0.7250000000000001 0.0
C632 C 0.3407503286992628 0.4272731119707824 0.7250000000000001 0.0
C633 C 0.3267115272209326 0.4750848790148313 0.7250000000000001 0.0
C634 C 0.3267115272209325 0.5249151209851687 0.7250000000000001 0.0
C635 C 0.34075032869926286 0.5727268880292178 0.7250000000000001 0.0
C636 C 0.36769059145211624 0.6146467551285966 0.7250000000000001 0.0
C637 C 0.40534977561116836 0.6472786239579629 0.7250000000000001 0.0
C638 C 0.4506769580436449 0.6679788545739576 0.7250000000000001 0.0
C639 C 0.5 0.7250704374010848 0.7250000000000001 -0.0
C640 C 0.5634096697984267 0.7159535032546825 0.7250000000000001 -0.0
C641 C 0.6216822652616114 0.6893413005995218 0.7250000000000001 -0.0
C642 C 0.6700968872655966 0.6473897918258609 0.7250000000000001 -0.0
C643 C 0.7047312710684631 0.5934976386793119 0.7250000000000001 -0.0
C644 C 0.722779544873114 0.532030862898833 0.7250000000000001 -0.0
C645 C 0.7227795448731141 0.46796913710116705 0.7250000000000001 -0.0
C646 C 0.7047312710684631 0.40650236132068807 0.7250000000000001 -0.0
C647 C 0.6700968872655966 0.35261020817413924 0.7250000000000001 -0.0
C648 C 0.6216822652616114 0.3106586994004781 0.7250000000000001 -0.0
C649 C 0.5634096697984268 0.28404649674531746 0.7250000000000001 -0.0
C650 C 0.5 0.2749295625989151 0.7250000000000001 -0.0
C651 C 0.43659033020157345 0.28404649674531746 0.7250000000000001 -0.0
C652 C 0.3783177347383885 0.31065869940047813 0.7250000000000001 -0.0
C653 C 0.3299031127344034 0.3526102081741392 0.7250000000000001 -0.0
C654 C 0.2952687289315369 0.406502361320688 0.7250000000000001 -0.0
C655 C 0.2772204551268859 0.46796913710116705 0.7250000000000001 -0.0
C656 C 0.27722045512688587 0.532030862898833 0.7250000000000001 -0.0
C657 C 0.29526872893153694 0.593497638679312 0.7250000000000001 -0.0
C658 C 0.3299031127344034 0.6473897918258609 0.7250000000000001 -0.0
C659 C 0.37831773473838837 0.6893413005995217 0.7250000000000001 -0.0
C660 C 0.4365903302015734 0.7159535032546825 0.7250000000000001 -0.0
C661 C 0.5 0.6750704374010849 0.775 -0.0
C662 C 0.5493230419563551 0.6679788545739576 0.775 -0.0
C663 C 0.5946502243888315 0.6472786239579629 0.775 -0.0
C664 C 0.6323094085478838 0.6146467551285966 0.775 -0.0
C665 C 0.6592496713007371 0.5727268880292177 0.775 -0.0
C666 C 0.6732884727790674 0.5249151209851688 0.775 -0.0
C667 C 0.6732884727790674 0.4750848790148314 0.775 -0.0
C668 C 0.6592496713007372 0.4272731119707824 0.775 -0.0
C669 C 0.6323094085478838 0.38535324487140343 0.775 -0.0
C670 C 0.5946502243888315 0.3527213760420372 0.775 -0.0
C671 C 0.5493230419563552 0.33202114542604233 0.775 -0.0
C672 C 0.5 0.32492956259891514 0.775 -0.0
C673 C 0.45067695804364494 0.3320211454260423 0.775 -0.0
C674 C 0.4053497756111684 0.3527213760420372 0.775 -0.0
C675 C 0.36769059145211624 0.3853532448714034 0.775 -0.0
C676 C 0.3407503286992628 0.4272731119707824 0.775 -0.0
C677 C 0.3267115272209326 0.4750848790148313 0.775 -0.0
C678 C 0.3267115272209325 0.5249151209851687 0.775 -0.0
C679 C 0.34075032869926286 0.5727268880292178 0.775 -0.0
C680 C 0.36769059145211624 0.6146467551285966 0.775 -0.0
C681 C 0.40534977561116836 0.6472786239579629 0.775 -0.0
C682 C 0.4506769580436449 0.6679788545739576 0.775 -0.0
C683 C 0.5 0.7250704374010848 0.775 0.0
C684 C 0.5634096697984267 0.7159535032546825 0.775 0.0
C685 C 0.6216822652616114 0.6893413005995218 0.775 0.0
C686 C 0.6700968872655966 0.6473897918258609 0.775 0.0
C687 C 0.7047312710684631 0.5934976386793119 0.775 0.0
C688 C 0.722779544873114 0.532030862898833 0.775 0.0
C689 C 0.7227795448731141 0.46796913710116705 0.775 0.0
C690 C 0.7047312710684631 0.40650236132068807 0.775 0.0
C691 C 0.6700968872655966 0.35261020817413924 0.775 0.0
C692 C 0.6216822652616114 0.3106586994004781 0.775 0.0
C693 C 0.5634096697984268 0.28404649674531746 0.775 0.0
C694 C 0.5 0.2749295625989151 0.775 0.0
C695 C 0.43659033020157345 0.28404649674531746 0.775 0.0
C696 C 0.3783177347383885 0.31065869940047813 0.775 0.0
C697 C 0.3299031127344034 0.3526102081741392 0.775 0.0
C698 C 0.2952687289315369 0.406502361320688 0.775 0.0
C699 C 0.2772204551268859 0.46796913710116705 0.775 0.0
C700 C 0.27722045512688587 0.532030862898833 0.775 0.0
C701 C 0.29526872893153694 0.593497638679312 0.775 0.0
C702 C 0.3299031127344034 0.6473897918258609 0.775 0.0
C703 C 0.37831773473838837 0.6893413005995217 0.775 0.0
C704 C 0.4365903302015734 0.7159535032546825 0.775 0.0
C705 C 0.5 0.6750704374010849 0.825 0.0
C706 C 0.5493230419563551 0.6679788545739576 0.825 0.0
C707 C 0.5946502243888315 0.6472786239579629 0.825 0.0
C708 C 0.6323094085478838 0.6146467551285966 0.825 0.0
C709 C 0.6592496713007371 0.5727268880292177 0.825 0.0
C710 C 0.6732884727790674 0.5249151209851688 0.825 0.0
C711 C 0.6732884727790674 0.4750848790148314 0.825 0.0
C712 C 0.6592496713007372 0.4272731119707824 0.825 0.0
C713 C 0.6323094085478838 0.38535324487140343 0.825 0.0
C714 C 0.5946502243888315 0.3527213760420372 0.825 0.0
C715 C 0.5493230419563552 0.33202114542604233 0.825 0.0
C716 C 0.5 0.32492956259891514 0.825 0.0
C717 C 0.45067695804364494 0.3320211454260423 0.825 0.0
C718 C 0.4053497756111684 0.3527213760420372 0.825 0.0
C719 C 0.36769059145211624 0.3853532448714034 0.825 0.0
C720 C 0.3407503286992628 0.4272731119707824 0.825 0.0
C721 C 0.3267115272209326 0.4750848790148313 0.825 0.0
C722 C 0.3267115272209325 0.5249151209851687 0.825 0.0
C723 C 0.34075032869926286 0.5727268880292178 0.825 0.0
C724 C 0.36769059145211624 0.6146467551285966 0.825 0.0
C725 C 0.40534977561116836 0.6472786239579629 0.825 0.0
C726 C 0.4506769580436449 0.6679788545739576 0.825 0.0
C727 C 0.5 0.7250704374010848 0.825 -0.0
C728 C 0.5634096697984267 0.7159535032546825 0.825 -0.0
C729 C 0.6216822652616114 0.6893413005995218 0.825 -0.0
C730 C 0.6700968872655966 0.6473897918258609 0.825 -0.0
C731 C 0.7047312710684631 0.5934976386793119 0.825 -0.0
C732 C 0.722779544873114 0.532030862898833 0.825 -0.0
C733 C 0.7227795448731141 0.46796913710116705 0.825 -0.0
C734 C 0.7047312710684631 0.40650236132068807 0.825 -0.0
C735 C 0.6700968872655966 0.35261020817413924 0.825 -0.0
C736 C 0.6216822652616114 0.3106586994004781 0.825 -0.0
C737 C 0.5634096697984268 0.28404649674531746 0.825 -0.0
C738 C 0.5 0.2749295625989151 0.825 -0.0
C739 C 0.43659033020157345 0.28404649674531746 0.825 -0.0
C740 C 0.3783177347383885 0.31065869940047813 0.825 -0.0
C741 C 0.3299031127344034 0.3526102081741392 0.825 -0.0
C742 C 0.2952687289315369 0.406502361320688 0.825 -0.0
C743 C 0.2772204551268859 0.46796913710116705 0.825 -0.0
C744 C 0.27722045512688587 0.532030862898833 0.825 -0.0
C745 C 0.29526872893153694 0.593497638679312 0.825 -0.0
C746 C 0.3299031127344034 0.6473897918258609 0.825 -0.0
C747 C 0.37831773473838837 0.6893413005995217 0.825 -0.0
C748 C 0.4365903302015734 0.7159535032546825 0.825 -0.0
C749 C 0.5 0.6750704374010849 0.875 -0.0
C750 C 0.5493230419563551 0.6679788545739576 0.875 -0.0
C751 C 0.5946502243888315 0.6472786239579629 0.875 -0.0
C752 C 0.6323094085478838 0.6146467551285966 0.875 -0.0
C753 C 0.6592496713007371 0.5727268880292177 0.875 -0.0
C754 C 0.6732884727790674 0.5249151209851688 0.875 -0.0
C755 C 0.6732884727790674 0.4750848790148314 0.875 -0.0
C756 C 0.6592496713007372 0.4272731119707824 0.875 -0.0
C757 C 0.6323094085478838 0.38535324487140343 0.875 -0.0
C758 C 0.5946502243888315 0.3527213760420372 0.875 -0.0
C759 C 0.5493230419563552 0.33202114542604233 0.875 -0.0
C760 C 0.5 0.32492956259891514 0.875 -0.0
C761 C 0.45067695804364494 0.3320211454260423 0.875 -0.0
C762 C 0.4053497756111684 0.3527213760420372 0.875 -0.0
C763 C 0.36769059145211624 0.3853532448714034 0.875 -0.0
C764 C 0.3407503286992628 0.4272731119707824 0.875 -0.0
C765 C 0.3267115272209326 0.4750848790148313 0.875 -0.0
C766 C 0.3267115272209325 0.5249151209851687 0.875 -0.0
C767 C 0.34075032869926286 0.5727268880292178 0.875 -0.0
C768 C 0.36769059145211624 0.6146467551285966 0.875 -0.0
C769 C 0.40534977561116836 0.6472786239579629 0.875 -0.0
C770 C 0.4506769580436449 0.6679788545739576 0.875 -0.0
C771 C 0.5 0.7250704374010848 0.875 0.0
C772 C 0.5634096697984267 0.7159535032546825 0.875 0.0
C773 C 0.6216822652616114 0.6893413005995218 0.875 0.0
C774 C 0.6700968872655966 0.6473897918258609 0.875 0.0
C775 C 0.7047312710684631 0.5934976386793119 0.875 0.0
C776 C 0.722779544873114 0.532030862898833 0.875 0.0
C777 C 0.7227795448731141 0.46796913710116705 0.875 0.0
C778 C 0.7047312710684631 0.40650236132068807 0.875 0.0
C779 C 0.6700968872655966 0.35261020817413924 0.875 0.0
C780 C 0.6216822652616114 0.3106586994004781 0.875 0.0
C781 C 0.5634096697984268 0.28404649674531746 0.875 0.0
C782 C 0.5 0.2749295625989151 0.875 0.0
C783 C 0.43659033020157345 0.28404649674531746 0.875 0.0
C784 C 0.3783177347383885 0.31065869940047813 0.875 0.0
C785 C 0.3299031127344034 0.3526102081741392 0.875 0.0
C786 C 0.2952687289315369 0.406502361320688 0.875 0.0
C787 C 0.2772204551268859 0.46796913710116705 0.875 0.0
C788 C 0.27722045512688587 0.532030862898833 0.875 0.0
C789 C 0.29526872893153694 0.593497638679312 0.875 0.0
C790 C 0.3299031127344034 0.6473897918258609 0.875 0.0
C791 C 0.37831773473838837 0.6893413005995217 0.875 0.0
C792 C 0.4365903302015734 0.7159535032546825 0.875 0.0
C793 C 0.5 0.6750704374010849 0.9249999999999999 0.0
C794 C 0.5493230419563551 0.6679788545739576 0.9249999999999999 0.0
C795 C 0.5946502243888315 0.6472786239579629 0.9249999999999999 0.0
C796 C 0.6323094085478838 0.6146467551285966 0.9249999999999999 0.0
C797 C 0.6592496713007371 0.5727268880292177 0.9249999999999999 0.0
C798 C 0.6732884727790674 0.5249151209851688 0.9249999999999999 0.0
C799 C 0.6732884727790674 0.4750848790148314 0.9249999999999999 0.0
C800 C 0.6592496713007372 0.4272731119707824 0.9249999999999999 0.0
C801 C 0.6323094085478838 0.38535324487140343 0.9249999999999999 0.0
C802 C 0.5946502243888315 0.3527213760420372 0.9249999999999999 0.0
C803 C 0.5493230419563552 0.33202114542604233 0.9249999999999999 0.0
C804 C 0.5 0.32492956259891514 0.9249999999999999 0.0
C805 C 0.45067695804364494 0.3320211454260423 0.9249999999999999 0.0
C806 C 0.4053497756111684 0.3527213760420372 0.9249999999999999 0.0
C807 C 0.36769059145211624 0.3853532448714034 0.9249999999999999 0.0
C808 C 0.3407503286992628 0.4272731119707824 0.9249999999999999 0.0
C809 C 0.3267115272209326 0.4750848790148313 0.9249999999999999 0.0
C810 C 0.3267115272209325 0.5249151209851687 0.9249999999999999 0.0
C811 C 0.34075032869926286 0.5727268880292178 0.9249999999999999 0.0
C812 C 0.36769059145211624 0.6146467551285966 0.9249999999999999 0.0
C813 C 0.40534977561116836 0.6472786239579629 0.9249999999999999 0.0
C814 C 0.4506769580436449 0.6679788545739576 0.9249999999999999 0.0
C815 C 0.5 0.7250704374010848 0.9249999999999999 -0.0
C816 C 0.5634096697984267 0.7159535032546825 0.9249999999999999 -0.0
C817 C 0.6216822652616114 0.6893413005995218 0.9249999999999999 -0.0
C818 C 0.6700968872655966 0.6473897918258609 0.9249999999999999 -0.0
C819 C 0.7047312710684631 0.5934976386793119 0.9249999999999999 -0.0
C820 C 0.722779544873114 0.532030862898833 0.9249999999999999 -0.0
C821 C 0.7227795448731141 0.46796913710116705 0.9249999999999999 -0.0
C822 C 0.7047312710684631 0.40650236132068807 0.9249999999999999 -0.0
C823 C 0.6700968872655966 0.35261020817413924 0.9249999999999999 -0.0
C824 C 0.6216822652616114 0.3106586994004781 0.9249999999999999 -0.0
C825 C 0.5634096697984268 0.28404649674531746 0.9249999999999999 -0.0
C826 C 0.5 0.2749295625989151 0.9249999999999999 -0.0
C827 C 0.43659033020157345 0.28404649674531746 0.9249999999999999 -0.0
C828 C 0.3783177347383885 0.31065869940047813 0.9249999999999999 -0.0
C829 C 0.3299031127344034 0.3526102081741392 0.9249999999999999 -0.0
C830 C 0.2952687289315369 0.406502361320688 0.9249999999999999 -0.0
C831 C 0.2772204551268859 0.46796913710116705 0.9249999999999999 -0.0
C832 C 0.27722045512688587 0.532030862898833 0.9249999999999999 -0.0
C833 C 0.29526872893153694 0.593497638679312 0.9249999999999999 -0.0
C834 C 0.3299031127344034 0.6473897918258609 0.9249999999999999 -0.0
C835 C 0.37831773473838837 0.6893413005995217 0.9249999999999999 -0.0
C836 C 0.4365903302015734 0.7159535032546825 0.9249999999999999 -0.0
C837 C 0.5 0.6750704374010849 0.975 -0.0
C838 C 0.5493230419563551 0.6679788545739576 0.975 -0.0
C839 C 0.5946502243888315 0.6472786239579629 0.975 -0.0
C840 C 0.6323094085478838 0.6146467551285966 0.975 -0.0
C841 C 0.6592496713007371 0.5727268880292177 0.975 -0.0
C842 C 0.6732884727790674 0.5249151209851688 0.975 -0.0
C843 C 0.6732884727790674 0.4750848790148314 0.975 -0.0
C844 C 0.6592496713007372 0.4272731119707824 0.975 -0.0
C845 C 0.6323094085478838 0.38535324487140343 0.975 -0.0
C846 C 0.5946502243888315 0.3527213760420372 0.975 -0.0
C847 C 0.5493230419563552 0.33202114542604233 0.975 -0.0
C848 C 0.5 0.32492956259891514 0.975 -0.0
C849 C 0.45067695804364494 0.3320211454260423 0.975 -0.0
C850 C 0.4053497756111684 0.3527213760420372 0.975 -0.0
C851 C 0.36769059145211624 0.3853532448714034 0.975 -0.0
C852 C 0.3407503286992628 0.4272731119707824 0.975 -0.0
C853 C 0.3267115272209326 0.4750848790148313 0.975 -0.0
C854 C 0.3267115272209325 0.5249151209851687 0.975 -0.0
C855 C 0.34075032869926286 0.5727268880292178 0.975 -0.0
C856 C 0.36769059145211624 0.6146467551285966 0.975 -0.0
C857 C 0.40534977561116836 0.6472786239579629 0.975 -0.0
C858 C 0.4506769580436449 0.6679788545739576 0.975 -0.0
C859 C 0.5 0.7250704374010848 0.975 0.0
C860 C 0.5634096697984267 0.7159535032546825 0.975 0.0
C861 C 0.6216822652616114 0.6893413005995218 0.975 0.0
C862 C 0.6700968872655966 0.6473897918258609 0.975 0.0
C863 C 0.7047312710684631 0.5934976386793119 0.975 0.0
C864 C 0.722779544873114 0.532030862898833 0.975 0.0
C865 C 0.7227795448731141 0.46796913710116705 0.975 0.0
C866 C 0.7047312710684631 0.40650236132068807 0.975 0.0
C867 C 0.6700968872655966 0.35261020817413924 0.975 0.0
C868 C 0.6216822652616114 0.3106586994004781 0.975 0.0
C869 C 0.5634096697984268 0.28404649674531746 0.975 0.0
C870 C 0.5 0.2749295625989151 0.975 0.0
C871 C 0.43659033020157345 0.28404649674531746 0.975 0.0
C872 C 0.3783177347383885 0.31065869940047813 0.975 0.0
C873 C 0.3299031127344034 0.3526102081741392 0.975 0.0
C874 C 0.2952687289315369 0.406502361320688 0.975 0.0
C875 C 0.2772204551268859 0.46796913710116705 0.975 0.0
C876 C 0.27722045512688587 0.532030862898833 0.975 0.0
C877 C 0.29526872893153694 0.593497638679312 0.975 0.0
C878 C 0.3299031127344034 0.6473897918258609 0.975 0.0
C879 C 0.37831773473838837 0.6893413005995217 0.975 0.0
C880 C 0.4365903302015734 0.7159535032546825 0.975 0.0
