
    
#======================================================================

# CRYSTAL DATA

#----------------------------------------------------------------------

data_VESTA_phase_1


_chemical_name_common                  'XYZ file'
_cell_length_a                         30.8
_cell_length_b                         30.8
_cell_length_c                         30.8
_cell_angle_alpha                      90
_cell_angle_beta                       90
_cell_angle_gamma                      90
_symmetry_space_group_name_H-M    'P1'
_symmetry_Int_Tables_number       1
_symmetry_cell_setting            triclinic
loop_
_space_group_symop_operation_xyz
   'x, y, z'

loop_
   _atom_site_label
   _atom_site_occupancy
   _atom_site_fract_x
   _atom_site_fract_y
   _atom_site_fract_z
   _atom_site_charge
C1 C 0.5 0.6909859317102743 0.025 -0.7830
C2 C 0.5494307964732684 0.6844782438968343 0.025 -0.7830
C3 C 0.5954929658551372 0.6653986686265376 0.025 -0.7830
C4 C 0.6350474474235659 0.635047447423566 0.025 -0.7830
C5 C 0.6653986686265375 0.5954929658551372 0.025 -0.7830
C6 C 0.6844782438968343 0.5494307964732684 0.025 -0.7830
C7 C 0.6909859317102743 0.5 0.025 -0.7830
C8 C 0.6844782438968343 0.4505692035267315 0.025 -0.7830
C9 C 0.6653986686265376 0.40450703414486283 0.025 -0.7830
C10 C 0.635047447423566 0.3649525525764341 0.025 -0.7830
C11 C 0.5954929658551372 0.3346013313734623 0.025 -0.7830
C12 C 0.5494307964732684 0.31552175610316563 0.025 -0.7830
C13 C 0.5 0.3090140682897256 0.025 -0.7830
C14 C 0.4505692035267315 0.31552175610316563 0.025 -0.7830
C15 C 0.4045070341448628 0.3346013313734624 0.025 -0.7830
C16 C 0.3649525525764341 0.36495255257643405 0.025 -0.7830
C17 C 0.33460133137346243 0.4045070341448627 0.025 -0.7830
C18 C 0.31552175610316563 0.4505692035267315 0.025 -0.7830
C19 C 0.3090140682897256 0.49999999999999994 0.025 -0.7830
C20 C 0.31552175610316563 0.5494307964732683 0.025 -0.7830
C21 C 0.3346013313734624 0.5954929658551372 0.025 -0.7830
C22 C 0.36495255257643405 0.6350474474235659 0.025 -0.7830
C23 C 0.4045070341448627 0.6653986686265375 0.025 -0.7830
C24 C 0.4505692035267315 0.6844782438968343 0.025 -0.7830
C25 C 0.5 0.7409859317102745 0.025 0.7830
C26 C 0.5623717487283946 0.7327745352112879 0.025 0.7830
C27 C 0.6204929658551372 0.7086999388157595 0.025 0.7830
C28 C 0.6704027864828932 0.6704027864828933 0.025 0.7830
C29 C 0.7086999388157595 0.6204929658551372 0.025 0.7830
C30 C 0.7327745352112879 0.5623717487283946 0.025 0.7830
C31 C 0.7409859317102745 0.5 0.025 0.7830
C32 C 0.7327745352112879 0.43762825127160543 0.025 0.7830
C33 C 0.7086999388157595 0.37950703414486286 0.025 0.7830
C34 C 0.6704027864828933 0.32959721351710675 0.025 0.7830
C35 C 0.6204929658551372 0.29130006118424046 0.025 0.7830
C36 C 0.5623717487283946 0.2672254647887123 0.025 0.7830
C37 C 0.5000000000000001 0.2590140682897256 0.025 0.7830
C38 C 0.4376282512716055 0.26722546478871223 0.025 0.7830
C39 C 0.3795070341448628 0.29130006118424046 0.025 0.7830
C40 C 0.32959721351710675 0.32959721351710664 0.025 0.7830
C41 C 0.2913000611842405 0.3795070341448627 0.025 0.7830
C42 C 0.26722546478871223 0.4376282512716055 0.025 0.7830
C43 C 0.2590140682897256 0.49999999999999994 0.025 0.7830
C44 C 0.2672254647887122 0.5623717487283945 0.025 0.7830
C45 C 0.29130006118424046 0.6204929658551372 0.025 0.7830
C46 C 0.32959721351710664 0.6704027864828932 0.025 0.7830
C47 C 0.3795070341448627 0.7086999388157594 0.025 0.7830
C48 C 0.4376282512716055 0.7327745352112879 0.025 0.7830
C49 C 0.5 0.6909859317102743 0.075 -0.7830
C50 C 0.5494307964732684 0.6844782438968343 0.075 -0.7830
C51 C 0.5954929658551372 0.6653986686265376 0.075 -0.7830
C52 C 0.6350474474235659 0.635047447423566 0.075 -0.7830
C53 C 0.6653986686265375 0.5954929658551372 0.075 -0.7830
C54 C 0.6844782438968343 0.5494307964732684 0.075 -0.7830
C55 C 0.6909859317102743 0.5 0.075 -0.7830
C56 C 0.6844782438968343 0.4505692035267315 0.075 -0.7830
C57 C 0.6653986686265376 0.40450703414486283 0.075 -0.7830
C58 C 0.635047447423566 0.3649525525764341 0.075 -0.7830
C59 C 0.5954929658551372 0.3346013313734623 0.075 -0.7830
C60 C 0.5494307964732684 0.31552175610316563 0.075 -0.7830
C61 C 0.5 0.3090140682897256 0.075 -0.7830
C62 C 0.4505692035267315 0.31552175610316563 0.075 -0.7830
C63 C 0.4045070341448628 0.3346013313734624 0.075 -0.7830
C64 C 0.3649525525764341 0.36495255257643405 0.075 -0.7830
C65 C 0.33460133137346243 0.4045070341448627 0.075 -0.7830
C66 C 0.31552175610316563 0.4505692035267315 0.075 -0.7830
C67 C 0.3090140682897256 0.49999999999999994 0.075 -0.7830
C68 C 0.31552175610316563 0.5494307964732683 0.075 -0.7830
C69 C 0.3346013313734624 0.5954929658551372 0.075 -0.7830
C70 C 0.36495255257643405 0.6350474474235659 0.075 -0.7830
C71 C 0.4045070341448627 0.6653986686265375 0.075 -0.7830
C72 C 0.4505692035267315 0.6844782438968343 0.075 -0.7830
C73 C 0.5 0.7409859317102745 0.075 0.7830
C74 C 0.5623717487283946 0.7327745352112879 0.075 0.7830
C75 C 0.6204929658551372 0.7086999388157595 0.075 0.7830
C76 C 0.6704027864828932 0.6704027864828933 0.075 0.7830
C77 C 0.7086999388157595 0.6204929658551372 0.075 0.7830
C78 C 0.7327745352112879 0.5623717487283946 0.075 0.7830
C79 C 0.7409859317102745 0.5 0.075 0.7830
C80 C 0.7327745352112879 0.43762825127160543 0.075 0.7830
C81 C 0.7086999388157595 0.37950703414486286 0.075 0.7830
C82 C 0.6704027864828933 0.32959721351710675 0.075 0.7830
C83 C 0.6204929658551372 0.29130006118424046 0.075 0.7830
C84 C 0.5623717487283946 0.2672254647887123 0.075 0.7830
C85 C 0.5000000000000001 0.2590140682897256 0.075 0.7830
C86 C 0.4376282512716055 0.26722546478871223 0.075 0.7830
C87 C 0.3795070341448628 0.29130006118424046 0.075 0.7830
C88 C 0.32959721351710675 0.32959721351710664 0.075 0.7830
C89 C 0.2913000611842405 0.3795070341448627 0.075 0.7830
C90 C 0.26722546478871223 0.4376282512716055 0.075 0.7830
C91 C 0.2590140682897256 0.49999999999999994 0.075 0.7830
C92 C 0.2672254647887122 0.5623717487283945 0.075 0.7830
C93 C 0.29130006118424046 0.6204929658551372 0.075 0.7830
C94 C 0.32959721351710664 0.6704027864828932 0.075 0.7830
C95 C 0.3795070341448627 0.7086999388157594 0.075 0.7830
C96 C 0.4376282512716055 0.7327745352112879 0.075 0.7830
C97 C 0.5 0.6909859317102743 0.125 -0.7830
C98 C 0.5494307964732684 0.6844782438968343 0.125 -0.7830
C99 C 0.5954929658551372 0.6653986686265376 0.125 -0.7830
C100 C 0.6350474474235659 0.635047447423566 0.125 -0.7830
C101 C 0.6653986686265375 0.5954929658551372 0.125 -0.7830
C102 C 0.6844782438968343 0.5494307964732684 0.125 -0.7830
C103 C 0.6909859317102743 0.5 0.125 -0.7830
C104 C 0.6844782438968343 0.4505692035267315 0.125 -0.7830
C105 C 0.6653986686265376 0.40450703414486283 0.125 -0.7830
C106 C 0.635047447423566 0.3649525525764341 0.125 -0.7830
C107 C 0.5954929658551372 0.3346013313734623 0.125 -0.7830
C108 C 0.5494307964732684 0.31552175610316563 0.125 -0.7830
C109 C 0.5 0.3090140682897256 0.125 -0.7830
C110 C 0.4505692035267315 0.31552175610316563 0.125 -0.7830
C111 C 0.4045070341448628 0.3346013313734624 0.125 -0.7830
C112 C 0.3649525525764341 0.36495255257643405 0.125 -0.7830
C113 C 0.33460133137346243 0.4045070341448627 0.125 -0.7830
C114 C 0.31552175610316563 0.4505692035267315 0.125 -0.7830
C115 C 0.3090140682897256 0.49999999999999994 0.125 -0.7830
C116 C 0.31552175610316563 0.5494307964732683 0.125 -0.7830
C117 C 0.3346013313734624 0.5954929658551372 0.125 -0.7830
C118 C 0.36495255257643405 0.6350474474235659 0.125 -0.7830
C119 C 0.4045070341448627 0.6653986686265375 0.125 -0.7830
C120 C 0.4505692035267315 0.6844782438968343 0.125 -0.7830
C121 C 0.5 0.7409859317102745 0.125 0.7830
C122 C 0.5623717487283946 0.7327745352112879 0.125 0.7830
C123 C 0.6204929658551372 0.7086999388157595 0.125 0.7830
C124 C 0.6704027864828932 0.6704027864828933 0.125 0.7830
C125 C 0.7086999388157595 0.6204929658551372 0.125 0.7830
C126 C 0.7327745352112879 0.5623717487283946 0.125 0.7830
C127 C 0.7409859317102745 0.5 0.125 0.7830
C128 C 0.7327745352112879 0.43762825127160543 0.125 0.7830
C129 C 0.7086999388157595 0.37950703414486286 0.125 0.7830
C130 C 0.6704027864828933 0.32959721351710675 0.125 0.7830
C131 C 0.6204929658551372 0.29130006118424046 0.125 0.7830
C132 C 0.5623717487283946 0.2672254647887123 0.125 0.7830
C133 C 0.5000000000000001 0.2590140682897256 0.125 0.7830
C134 C 0.4376282512716055 0.26722546478871223 0.125 0.7830
C135 C 0.3795070341448628 0.29130006118424046 0.125 0.7830
C136 C 0.32959721351710675 0.32959721351710664 0.125 0.7830
C137 C 0.2913000611842405 0.3795070341448627 0.125 0.7830
C138 C 0.26722546478871223 0.4376282512716055 0.125 0.7830
C139 C 0.2590140682897256 0.49999999999999994 0.125 0.7830
C140 C 0.2672254647887122 0.5623717487283945 0.125 0.7830
C141 C 0.29130006118424046 0.6204929658551372 0.125 0.7830
C142 C 0.32959721351710664 0.6704027864828932 0.125 0.7830
C143 C 0.3795070341448627 0.7086999388157594 0.125 0.7830
C144 C 0.4376282512716055 0.7327745352112879 0.125 0.7830
C145 C 0.5 0.6909859317102743 0.17500000000000002 -0.7830
C146 C 0.5494307964732684 0.6844782438968343 0.17500000000000002 -0.7830
C147 C 0.5954929658551372 0.6653986686265376 0.17500000000000002 -0.7830
C148 C 0.6350474474235659 0.635047447423566 0.17500000000000002 -0.7830
C149 C 0.6653986686265375 0.5954929658551372 0.17500000000000002 -0.7830
C150 C 0.6844782438968343 0.5494307964732684 0.17500000000000002 -0.7830
C151 C 0.6909859317102743 0.5 0.17500000000000002 -0.7830
C152 C 0.6844782438968343 0.4505692035267315 0.17500000000000002 -0.7830
C153 C 0.6653986686265376 0.40450703414486283 0.17500000000000002 -0.7830
C154 C 0.635047447423566 0.3649525525764341 0.17500000000000002 -0.7830
C155 C 0.5954929658551372 0.3346013313734623 0.17500000000000002 -0.7830
C156 C 0.5494307964732684 0.31552175610316563 0.17500000000000002 -0.7830
C157 C 0.5 0.3090140682897256 0.17500000000000002 -0.7830
C158 C 0.4505692035267315 0.31552175610316563 0.17500000000000002 -0.7830
C159 C 0.4045070341448628 0.3346013313734624 0.17500000000000002 -0.7830
C160 C 0.3649525525764341 0.36495255257643405 0.17500000000000002 -0.7830
C161 C 0.33460133137346243 0.4045070341448627 0.17500000000000002 -0.7830
C162 C 0.31552175610316563 0.4505692035267315 0.17500000000000002 -0.7830
C163 C 0.3090140682897256 0.49999999999999994 0.17500000000000002 -0.7830
C164 C 0.31552175610316563 0.5494307964732683 0.17500000000000002 -0.7830
C165 C 0.3346013313734624 0.5954929658551372 0.17500000000000002 -0.7830
C166 C 0.36495255257643405 0.6350474474235659 0.17500000000000002 -0.7830
C167 C 0.4045070341448627 0.6653986686265375 0.17500000000000002 -0.7830
C168 C 0.4505692035267315 0.6844782438968343 0.17500000000000002 -0.7830
C169 C 0.5 0.7409859317102745 0.17500000000000002 0.7830
C170 C 0.5623717487283946 0.7327745352112879 0.17500000000000002 0.7830
C171 C 0.6204929658551372 0.7086999388157595 0.17500000000000002 0.7830
C172 C 0.6704027864828932 0.6704027864828933 0.17500000000000002 0.7830
C173 C 0.7086999388157595 0.6204929658551372 0.17500000000000002 0.7830
C174 C 0.7327745352112879 0.5623717487283946 0.17500000000000002 0.7830
C175 C 0.7409859317102745 0.5 0.17500000000000002 0.7830
C176 C 0.7327745352112879 0.43762825127160543 0.17500000000000002 0.7830
C177 C 0.7086999388157595 0.37950703414486286 0.17500000000000002 0.7830
C178 C 0.6704027864828933 0.32959721351710675 0.17500000000000002 0.7830
C179 C 0.6204929658551372 0.29130006118424046 0.17500000000000002 0.7830
C180 C 0.5623717487283946 0.2672254647887123 0.17500000000000002 0.7830
C181 C 0.5000000000000001 0.2590140682897256 0.17500000000000002 0.7830
C182 C 0.4376282512716055 0.26722546478871223 0.17500000000000002 0.7830
C183 C 0.3795070341448628 0.29130006118424046 0.17500000000000002 0.7830
C184 C 0.32959721351710675 0.32959721351710664 0.17500000000000002 0.7830
C185 C 0.2913000611842405 0.3795070341448627 0.17500000000000002 0.7830
C186 C 0.26722546478871223 0.4376282512716055 0.17500000000000002 0.7830
C187 C 0.2590140682897256 0.49999999999999994 0.17500000000000002 0.7830
C188 C 0.2672254647887122 0.5623717487283945 0.17500000000000002 0.7830
C189 C 0.29130006118424046 0.6204929658551372 0.17500000000000002 0.7830
C190 C 0.32959721351710664 0.6704027864828932 0.17500000000000002 0.7830
C191 C 0.3795070341448627 0.7086999388157594 0.17500000000000002 0.7830
C192 C 0.4376282512716055 0.7327745352112879 0.17500000000000002 0.7830
C193 C 0.5 0.6909859317102743 0.22499999999999998 -0.7830
C194 C 0.5494307964732684 0.6844782438968343 0.22499999999999998 -0.7830
C195 C 0.5954929658551372 0.6653986686265376 0.22499999999999998 -0.7830
C196 C 0.6350474474235659 0.635047447423566 0.22499999999999998 -0.7830
C197 C 0.6653986686265375 0.5954929658551372 0.22499999999999998 -0.7830
C198 C 0.6844782438968343 0.5494307964732684 0.22499999999999998 -0.7830
C199 C 0.6909859317102743 0.5 0.22499999999999998 -0.7830
C200 C 0.6844782438968343 0.4505692035267315 0.22499999999999998 -0.7830
C201 C 0.6653986686265376 0.40450703414486283 0.22499999999999998 -0.7830
C202 C 0.635047447423566 0.3649525525764341 0.22499999999999998 -0.7830
C203 C 0.5954929658551372 0.3346013313734623 0.22499999999999998 -0.7830
C204 C 0.5494307964732684 0.31552175610316563 0.22499999999999998 -0.7830
C205 C 0.5 0.3090140682897256 0.22499999999999998 -0.7830
C206 C 0.4505692035267315 0.31552175610316563 0.22499999999999998 -0.7830
C207 C 0.4045070341448628 0.3346013313734624 0.22499999999999998 -0.7830
C208 C 0.3649525525764341 0.36495255257643405 0.22499999999999998 -0.7830
C209 C 0.33460133137346243 0.4045070341448627 0.22499999999999998 -0.7830
C210 C 0.31552175610316563 0.4505692035267315 0.22499999999999998 -0.7830
C211 C 0.3090140682897256 0.49999999999999994 0.22499999999999998 -0.7830
C212 C 0.31552175610316563 0.5494307964732683 0.22499999999999998 -0.7830
C213 C 0.3346013313734624 0.5954929658551372 0.22499999999999998 -0.7830
C214 C 0.36495255257643405 0.6350474474235659 0.22499999999999998 -0.7830
C215 C 0.4045070341448627 0.6653986686265375 0.22499999999999998 -0.7830
C216 C 0.4505692035267315 0.6844782438968343 0.22499999999999998 -0.7830
C217 C 0.5 0.7409859317102745 0.22499999999999998 0.7830
C218 C 0.5623717487283946 0.7327745352112879 0.22499999999999998 0.7830
C219 C 0.6204929658551372 0.7086999388157595 0.22499999999999998 0.7830
C220 C 0.6704027864828932 0.6704027864828933 0.22499999999999998 0.7830
C221 C 0.7086999388157595 0.6204929658551372 0.22499999999999998 0.7830
C222 C 0.7327745352112879 0.5623717487283946 0.22499999999999998 0.7830
C223 C 0.7409859317102745 0.5 0.22499999999999998 0.7830
C224 C 0.7327745352112879 0.43762825127160543 0.22499999999999998 0.7830
C225 C 0.7086999388157595 0.37950703414486286 0.22499999999999998 0.7830
C226 C 0.6704027864828933 0.32959721351710675 0.22499999999999998 0.7830
C227 C 0.6204929658551372 0.29130006118424046 0.22499999999999998 0.7830
C228 C 0.5623717487283946 0.2672254647887123 0.22499999999999998 0.7830
C229 C 0.5000000000000001 0.2590140682897256 0.22499999999999998 0.7830
C230 C 0.4376282512716055 0.26722546478871223 0.22499999999999998 0.7830
C231 C 0.3795070341448628 0.29130006118424046 0.22499999999999998 0.7830
C232 C 0.32959721351710675 0.32959721351710664 0.22499999999999998 0.7830
C233 C 0.2913000611842405 0.3795070341448627 0.22499999999999998 0.7830
C234 C 0.26722546478871223 0.4376282512716055 0.22499999999999998 0.7830
C235 C 0.2590140682897256 0.49999999999999994 0.22499999999999998 0.7830
C236 C 0.2672254647887122 0.5623717487283945 0.22499999999999998 0.7830
C237 C 0.29130006118424046 0.6204929658551372 0.22499999999999998 0.7830
C238 C 0.32959721351710664 0.6704027864828932 0.22499999999999998 0.7830
C239 C 0.3795070341448627 0.7086999388157594 0.22499999999999998 0.7830
C240 C 0.4376282512716055 0.7327745352112879 0.22499999999999998 0.7830
C241 C 0.5 0.6909859317102743 0.275 -0.7830
C242 C 0.5494307964732684 0.6844782438968343 0.275 -0.7830
C243 C 0.5954929658551372 0.6653986686265376 0.275 -0.7830
C244 C 0.6350474474235659 0.635047447423566 0.275 -0.7830
C245 C 0.6653986686265375 0.5954929658551372 0.275 -0.7830
C246 C 0.6844782438968343 0.5494307964732684 0.275 -0.7830
C247 C 0.6909859317102743 0.5 0.275 -0.7830
C248 C 0.6844782438968343 0.4505692035267315 0.275 -0.7830
C249 C 0.6653986686265376 0.40450703414486283 0.275 -0.7830
C250 C 0.635047447423566 0.3649525525764341 0.275 -0.7830
C251 C 0.5954929658551372 0.3346013313734623 0.275 -0.7830
C252 C 0.5494307964732684 0.31552175610316563 0.275 -0.7830
C253 C 0.5 0.3090140682897256 0.275 -0.7830
C254 C 0.4505692035267315 0.31552175610316563 0.275 -0.7830
C255 C 0.4045070341448628 0.3346013313734624 0.275 -0.7830
C256 C 0.3649525525764341 0.36495255257643405 0.275 -0.7830
C257 C 0.33460133137346243 0.4045070341448627 0.275 -0.7830
C258 C 0.31552175610316563 0.4505692035267315 0.275 -0.7830
C259 C 0.3090140682897256 0.49999999999999994 0.275 -0.7830
C260 C 0.31552175610316563 0.5494307964732683 0.275 -0.7830
C261 C 0.3346013313734624 0.5954929658551372 0.275 -0.7830
C262 C 0.36495255257643405 0.6350474474235659 0.275 -0.7830
C263 C 0.4045070341448627 0.6653986686265375 0.275 -0.7830
C264 C 0.4505692035267315 0.6844782438968343 0.275 -0.7830
C265 C 0.5 0.7409859317102745 0.275 0.7830
C266 C 0.5623717487283946 0.7327745352112879 0.275 0.7830
C267 C 0.6204929658551372 0.7086999388157595 0.275 0.7830
C268 C 0.6704027864828932 0.6704027864828933 0.275 0.7830
C269 C 0.7086999388157595 0.6204929658551372 0.275 0.7830
C270 C 0.7327745352112879 0.5623717487283946 0.275 0.7830
C271 C 0.7409859317102745 0.5 0.275 0.7830
C272 C 0.7327745352112879 0.43762825127160543 0.275 0.7830
C273 C 0.7086999388157595 0.37950703414486286 0.275 0.7830
C274 C 0.6704027864828933 0.32959721351710675 0.275 0.7830
C275 C 0.6204929658551372 0.29130006118424046 0.275 0.7830
C276 C 0.5623717487283946 0.2672254647887123 0.275 0.7830
C277 C 0.5000000000000001 0.2590140682897256 0.275 0.7830
C278 C 0.4376282512716055 0.26722546478871223 0.275 0.7830
C279 C 0.3795070341448628 0.29130006118424046 0.275 0.7830
C280 C 0.32959721351710675 0.32959721351710664 0.275 0.7830
C281 C 0.2913000611842405 0.3795070341448627 0.275 0.7830
C282 C 0.26722546478871223 0.4376282512716055 0.275 0.7830
C283 C 0.2590140682897256 0.49999999999999994 0.275 0.7830
C284 C 0.2672254647887122 0.5623717487283945 0.275 0.7830
C285 C 0.29130006118424046 0.6204929658551372 0.275 0.7830
C286 C 0.32959721351710664 0.6704027864828932 0.275 0.7830
C287 C 0.3795070341448627 0.7086999388157594 0.275 0.7830
C288 C 0.4376282512716055 0.7327745352112879 0.275 0.7830
C289 C 0.5 0.6909859317102743 0.325 -0.7830
C290 C 0.5494307964732684 0.6844782438968343 0.325 -0.7830
C291 C 0.5954929658551372 0.6653986686265376 0.325 -0.7830
C292 C 0.6350474474235659 0.635047447423566 0.325 -0.7830
C293 C 0.6653986686265375 0.5954929658551372 0.325 -0.7830
C294 C 0.6844782438968343 0.5494307964732684 0.325 -0.7830
C295 C 0.6909859317102743 0.5 0.325 -0.7830
C296 C 0.6844782438968343 0.4505692035267315 0.325 -0.7830
C297 C 0.6653986686265376 0.40450703414486283 0.325 -0.7830
C298 C 0.635047447423566 0.3649525525764341 0.325 -0.7830
C299 C 0.5954929658551372 0.3346013313734623 0.325 -0.7830
C300 C 0.5494307964732684 0.31552175610316563 0.325 -0.7830
C301 C 0.5 0.3090140682897256 0.325 -0.7830
C302 C 0.4505692035267315 0.31552175610316563 0.325 -0.7830
C303 C 0.4045070341448628 0.3346013313734624 0.325 -0.7830
C304 C 0.3649525525764341 0.36495255257643405 0.325 -0.7830
C305 C 0.33460133137346243 0.4045070341448627 0.325 -0.7830
C306 C 0.31552175610316563 0.4505692035267315 0.325 -0.7830
C307 C 0.3090140682897256 0.49999999999999994 0.325 -0.7830
C308 C 0.31552175610316563 0.5494307964732683 0.325 -0.7830
C309 C 0.3346013313734624 0.5954929658551372 0.325 -0.7830
C310 C 0.36495255257643405 0.6350474474235659 0.325 -0.7830
C311 C 0.4045070341448627 0.6653986686265375 0.325 -0.7830
C312 C 0.4505692035267315 0.6844782438968343 0.325 -0.7830
C313 C 0.5 0.7409859317102745 0.325 0.7830
C314 C 0.5623717487283946 0.7327745352112879 0.325 0.7830
C315 C 0.6204929658551372 0.7086999388157595 0.325 0.7830
C316 C 0.6704027864828932 0.6704027864828933 0.325 0.7830
C317 C 0.7086999388157595 0.6204929658551372 0.325 0.7830
C318 C 0.7327745352112879 0.5623717487283946 0.325 0.7830
C319 C 0.7409859317102745 0.5 0.325 0.7830
C320 C 0.7327745352112879 0.43762825127160543 0.325 0.7830
C321 C 0.7086999388157595 0.37950703414486286 0.325 0.7830
C322 C 0.6704027864828933 0.32959721351710675 0.325 0.7830
C323 C 0.6204929658551372 0.29130006118424046 0.325 0.7830
C324 C 0.5623717487283946 0.2672254647887123 0.325 0.7830
C325 C 0.5000000000000001 0.2590140682897256 0.325 0.7830
C326 C 0.4376282512716055 0.26722546478871223 0.325 0.7830
C327 C 0.3795070341448628 0.29130006118424046 0.325 0.7830
C328 C 0.32959721351710675 0.32959721351710664 0.325 0.7830
C329 C 0.2913000611842405 0.3795070341448627 0.325 0.7830
C330 C 0.26722546478871223 0.4376282512716055 0.325 0.7830
C331 C 0.2590140682897256 0.49999999999999994 0.325 0.7830
C332 C 0.2672254647887122 0.5623717487283945 0.325 0.7830
C333 C 0.29130006118424046 0.6204929658551372 0.325 0.7830
C334 C 0.32959721351710664 0.6704027864828932 0.325 0.7830
C335 C 0.3795070341448627 0.7086999388157594 0.325 0.7830
C336 C 0.4376282512716055 0.7327745352112879 0.325 0.7830
C337 C 0.5 0.6909859317102743 0.375 -0.7830
C338 C 0.5494307964732684 0.6844782438968343 0.375 -0.7830
C339 C 0.5954929658551372 0.6653986686265376 0.375 -0.7830
C340 C 0.6350474474235659 0.635047447423566 0.375 -0.7830
C341 C 0.6653986686265375 0.5954929658551372 0.375 -0.7830
C342 C 0.6844782438968343 0.5494307964732684 0.375 -0.7830
C343 C 0.6909859317102743 0.5 0.375 -0.7830
C344 C 0.6844782438968343 0.4505692035267315 0.375 -0.7830
C345 C 0.6653986686265376 0.40450703414486283 0.375 -0.7830
C346 C 0.635047447423566 0.3649525525764341 0.375 -0.7830
C347 C 0.5954929658551372 0.3346013313734623 0.375 -0.7830
C348 C 0.5494307964732684 0.31552175610316563 0.375 -0.7830
C349 C 0.5 0.3090140682897256 0.375 -0.7830
C350 C 0.4505692035267315 0.31552175610316563 0.375 -0.7830
C351 C 0.4045070341448628 0.3346013313734624 0.375 -0.7830
C352 C 0.3649525525764341 0.36495255257643405 0.375 -0.7830
C353 C 0.33460133137346243 0.4045070341448627 0.375 -0.7830
C354 C 0.31552175610316563 0.4505692035267315 0.375 -0.7830
C355 C 0.3090140682897256 0.49999999999999994 0.375 -0.7830
C356 C 0.31552175610316563 0.5494307964732683 0.375 -0.7830
C357 C 0.3346013313734624 0.5954929658551372 0.375 -0.7830
C358 C 0.36495255257643405 0.6350474474235659 0.375 -0.7830
C359 C 0.4045070341448627 0.6653986686265375 0.375 -0.7830
C360 C 0.4505692035267315 0.6844782438968343 0.375 -0.7830
C361 C 0.5 0.7409859317102745 0.375 0.7830
C362 C 0.5623717487283946 0.7327745352112879 0.375 0.7830
C363 C 0.6204929658551372 0.7086999388157595 0.375 0.7830
C364 C 0.6704027864828932 0.6704027864828933 0.375 0.7830
C365 C 0.7086999388157595 0.6204929658551372 0.375 0.7830
C366 C 0.7327745352112879 0.5623717487283946 0.375 0.7830
C367 C 0.7409859317102745 0.5 0.375 0.7830
C368 C 0.7327745352112879 0.43762825127160543 0.375 0.7830
C369 C 0.7086999388157595 0.37950703414486286 0.375 0.7830
C370 C 0.6704027864828933 0.32959721351710675 0.375 0.7830
C371 C 0.6204929658551372 0.29130006118424046 0.375 0.7830
C372 C 0.5623717487283946 0.2672254647887123 0.375 0.7830
C373 C 0.5000000000000001 0.2590140682897256 0.375 0.7830
C374 C 0.4376282512716055 0.26722546478871223 0.375 0.7830
C375 C 0.3795070341448628 0.29130006118424046 0.375 0.7830
C376 C 0.32959721351710675 0.32959721351710664 0.375 0.7830
C377 C 0.2913000611842405 0.3795070341448627 0.375 0.7830
C378 C 0.26722546478871223 0.4376282512716055 0.375 0.7830
C379 C 0.2590140682897256 0.49999999999999994 0.375 0.7830
C380 C 0.2672254647887122 0.5623717487283945 0.375 0.7830
C381 C 0.29130006118424046 0.6204929658551372 0.375 0.7830
C382 C 0.32959721351710664 0.6704027864828932 0.375 0.7830
C383 C 0.3795070341448627 0.7086999388157594 0.375 0.7830
C384 C 0.4376282512716055 0.7327745352112879 0.375 0.7830
C385 C 0.5 0.6909859317102743 0.425 -0.7830
C386 C 0.5494307964732684 0.6844782438968343 0.425 -0.7830
C387 C 0.5954929658551372 0.6653986686265376 0.425 -0.7830
C388 C 0.6350474474235659 0.635047447423566 0.425 -0.7830
C389 C 0.6653986686265375 0.5954929658551372 0.425 -0.7830
C390 C 0.6844782438968343 0.5494307964732684 0.425 -0.7830
C391 C 0.6909859317102743 0.5 0.425 -0.7830
C392 C 0.6844782438968343 0.4505692035267315 0.425 -0.7830
C393 C 0.6653986686265376 0.40450703414486283 0.425 -0.7830
C394 C 0.635047447423566 0.3649525525764341 0.425 -0.7830
C395 C 0.5954929658551372 0.3346013313734623 0.425 -0.7830
C396 C 0.5494307964732684 0.31552175610316563 0.425 -0.7830
C397 C 0.5 0.3090140682897256 0.425 -0.7830
C398 C 0.4505692035267315 0.31552175610316563 0.425 -0.7830
C399 C 0.4045070341448628 0.3346013313734624 0.425 -0.7830
C400 C 0.3649525525764341 0.36495255257643405 0.425 -0.7830
C401 C 0.33460133137346243 0.4045070341448627 0.425 -0.7830
C402 C 0.31552175610316563 0.4505692035267315 0.425 -0.7830
C403 C 0.3090140682897256 0.49999999999999994 0.425 -0.7830
C404 C 0.31552175610316563 0.5494307964732683 0.425 -0.7830
C405 C 0.3346013313734624 0.5954929658551372 0.425 -0.7830
C406 C 0.36495255257643405 0.6350474474235659 0.425 -0.7830
C407 C 0.4045070341448627 0.6653986686265375 0.425 -0.7830
C408 C 0.4505692035267315 0.6844782438968343 0.425 -0.7830
C409 C 0.5 0.7409859317102745 0.425 0.7830
C410 C 0.5623717487283946 0.7327745352112879 0.425 0.7830
C411 C 0.6204929658551372 0.7086999388157595 0.425 0.7830
C412 C 0.6704027864828932 0.6704027864828933 0.425 0.7830
C413 C 0.7086999388157595 0.6204929658551372 0.425 0.7830
C414 C 0.7327745352112879 0.5623717487283946 0.425 0.7830
C415 C 0.7409859317102745 0.5 0.425 0.7830
C416 C 0.7327745352112879 0.43762825127160543 0.425 0.7830
C417 C 0.7086999388157595 0.37950703414486286 0.425 0.7830
C418 C 0.6704027864828933 0.32959721351710675 0.425 0.7830
C419 C 0.6204929658551372 0.29130006118424046 0.425 0.7830
C420 C 0.5623717487283946 0.2672254647887123 0.425 0.7830
C421 C 0.5000000000000001 0.2590140682897256 0.425 0.7830
C422 C 0.4376282512716055 0.26722546478871223 0.425 0.7830
C423 C 0.3795070341448628 0.29130006118424046 0.425 0.7830
C424 C 0.32959721351710675 0.32959721351710664 0.425 0.7830
C425 C 0.2913000611842405 0.3795070341448627 0.425 0.7830
C426 C 0.26722546478871223 0.4376282512716055 0.425 0.7830
C427 C 0.2590140682897256 0.49999999999999994 0.425 0.7830
C428 C 0.2672254647887122 0.5623717487283945 0.425 0.7830
C429 C 0.29130006118424046 0.6204929658551372 0.425 0.7830
C430 C 0.32959721351710664 0.6704027864828932 0.425 0.7830
C431 C 0.3795070341448627 0.7086999388157594 0.425 0.7830
C432 C 0.4376282512716055 0.7327745352112879 0.425 0.7830
C433 C 0.5 0.6909859317102743 0.475 -0.7830
C434 C 0.5494307964732684 0.6844782438968343 0.475 -0.7830
C435 C 0.5954929658551372 0.6653986686265376 0.475 -0.7830
C436 C 0.6350474474235659 0.635047447423566 0.475 -0.7830
C437 C 0.6653986686265375 0.5954929658551372 0.475 -0.7830
C438 C 0.6844782438968343 0.5494307964732684 0.475 -0.7830
C439 C 0.6909859317102743 0.5 0.475 -0.7830
C440 C 0.6844782438968343 0.4505692035267315 0.475 -0.7830
C441 C 0.6653986686265376 0.40450703414486283 0.475 -0.7830
C442 C 0.635047447423566 0.3649525525764341 0.475 -0.7830
C443 C 0.5954929658551372 0.3346013313734623 0.475 -0.7830
C444 C 0.5494307964732684 0.31552175610316563 0.475 -0.7830
C445 C 0.5 0.3090140682897256 0.475 -0.7830
C446 C 0.4505692035267315 0.31552175610316563 0.475 -0.7830
C447 C 0.4045070341448628 0.3346013313734624 0.475 -0.7830
C448 C 0.3649525525764341 0.36495255257643405 0.475 -0.7830
C449 C 0.33460133137346243 0.4045070341448627 0.475 -0.7830
C450 C 0.31552175610316563 0.4505692035267315 0.475 -0.7830
C451 C 0.3090140682897256 0.49999999999999994 0.475 -0.7830
C452 C 0.31552175610316563 0.5494307964732683 0.475 -0.7830
C453 C 0.3346013313734624 0.5954929658551372 0.475 -0.7830
C454 C 0.36495255257643405 0.6350474474235659 0.475 -0.7830
C455 C 0.4045070341448627 0.6653986686265375 0.475 -0.7830
C456 C 0.4505692035267315 0.6844782438968343 0.475 -0.7830
C457 C 0.5 0.7409859317102745 0.475 0.7830
C458 C 0.5623717487283946 0.7327745352112879 0.475 0.7830
C459 C 0.6204929658551372 0.7086999388157595 0.475 0.7830
C460 C 0.6704027864828932 0.6704027864828933 0.475 0.7830
C461 C 0.7086999388157595 0.6204929658551372 0.475 0.7830
C462 C 0.7327745352112879 0.5623717487283946 0.475 0.7830
C463 C 0.7409859317102745 0.5 0.475 0.7830
C464 C 0.7327745352112879 0.43762825127160543 0.475 0.7830
C465 C 0.7086999388157595 0.37950703414486286 0.475 0.7830
C466 C 0.6704027864828933 0.32959721351710675 0.475 0.7830
C467 C 0.6204929658551372 0.29130006118424046 0.475 0.7830
C468 C 0.5623717487283946 0.2672254647887123 0.475 0.7830
C469 C 0.5000000000000001 0.2590140682897256 0.475 0.7830
C470 C 0.4376282512716055 0.26722546478871223 0.475 0.7830
C471 C 0.3795070341448628 0.29130006118424046 0.475 0.7830
C472 C 0.32959721351710675 0.32959721351710664 0.475 0.7830
C473 C 0.2913000611842405 0.3795070341448627 0.475 0.7830
C474 C 0.26722546478871223 0.4376282512716055 0.475 0.7830
C475 C 0.2590140682897256 0.49999999999999994 0.475 0.7830
C476 C 0.2672254647887122 0.5623717487283945 0.475 0.7830
C477 C 0.29130006118424046 0.6204929658551372 0.475 0.7830
C478 C 0.32959721351710664 0.6704027864828932 0.475 0.7830
C479 C 0.3795070341448627 0.7086999388157594 0.475 0.7830
C480 C 0.4376282512716055 0.7327745352112879 0.475 0.7830
C481 C 0.5 0.6909859317102743 0.525 -0.7830
C482 C 0.5494307964732684 0.6844782438968343 0.525 -0.7830
C483 C 0.5954929658551372 0.6653986686265376 0.525 -0.7830
C484 C 0.6350474474235659 0.635047447423566 0.525 -0.7830
C485 C 0.6653986686265375 0.5954929658551372 0.525 -0.7830
C486 C 0.6844782438968343 0.5494307964732684 0.525 -0.7830
C487 C 0.6909859317102743 0.5 0.525 -0.7830
C488 C 0.6844782438968343 0.4505692035267315 0.525 -0.7830
C489 C 0.6653986686265376 0.40450703414486283 0.525 -0.7830
C490 C 0.635047447423566 0.3649525525764341 0.525 -0.7830
C491 C 0.5954929658551372 0.3346013313734623 0.525 -0.7830
C492 C 0.5494307964732684 0.31552175610316563 0.525 -0.7830
C493 C 0.5 0.3090140682897256 0.525 -0.7830
C494 C 0.4505692035267315 0.31552175610316563 0.525 -0.7830
C495 C 0.4045070341448628 0.3346013313734624 0.525 -0.7830
C496 C 0.3649525525764341 0.36495255257643405 0.525 -0.7830
C497 C 0.33460133137346243 0.4045070341448627 0.525 -0.7830
C498 C 0.31552175610316563 0.4505692035267315 0.525 -0.7830
C499 C 0.3090140682897256 0.49999999999999994 0.525 -0.7830
C500 C 0.31552175610316563 0.5494307964732683 0.525 -0.7830
C501 C 0.3346013313734624 0.5954929658551372 0.525 -0.7830
C502 C 0.36495255257643405 0.6350474474235659 0.525 -0.7830
C503 C 0.4045070341448627 0.6653986686265375 0.525 -0.7830
C504 C 0.4505692035267315 0.6844782438968343 0.525 -0.7830
C505 C 0.5 0.7409859317102745 0.525 0.7830
C506 C 0.5623717487283946 0.7327745352112879 0.525 0.7830
C507 C 0.6204929658551372 0.7086999388157595 0.525 0.7830
C508 C 0.6704027864828932 0.6704027864828933 0.525 0.7830
C509 C 0.7086999388157595 0.6204929658551372 0.525 0.7830
C510 C 0.7327745352112879 0.5623717487283946 0.525 0.7830
C511 C 0.7409859317102745 0.5 0.525 0.7830
C512 C 0.7327745352112879 0.43762825127160543 0.525 0.7830
C513 C 0.7086999388157595 0.37950703414486286 0.525 0.7830
C514 C 0.6704027864828933 0.32959721351710675 0.525 0.7830
C515 C 0.6204929658551372 0.29130006118424046 0.525 0.7830
C516 C 0.5623717487283946 0.2672254647887123 0.525 0.7830
C517 C 0.5000000000000001 0.2590140682897256 0.525 0.7830
C518 C 0.4376282512716055 0.26722546478871223 0.525 0.7830
C519 C 0.3795070341448628 0.29130006118424046 0.525 0.7830
C520 C 0.32959721351710675 0.32959721351710664 0.525 0.7830
C521 C 0.2913000611842405 0.3795070341448627 0.525 0.7830
C522 C 0.26722546478871223 0.4376282512716055 0.525 0.7830
C523 C 0.2590140682897256 0.49999999999999994 0.525 0.7830
C524 C 0.2672254647887122 0.5623717487283945 0.525 0.7830
C525 C 0.29130006118424046 0.6204929658551372 0.525 0.7830
C526 C 0.32959721351710664 0.6704027864828932 0.525 0.7830
C527 C 0.3795070341448627 0.7086999388157594 0.525 0.7830
C528 C 0.4376282512716055 0.7327745352112879 0.525 0.7830
C529 C 0.5 0.6909859317102743 0.5750000000000001 -0.7830
C530 C 0.5494307964732684 0.6844782438968343 0.5750000000000001 -0.7830
C531 C 0.5954929658551372 0.6653986686265376 0.5750000000000001 -0.7830
C532 C 0.6350474474235659 0.635047447423566 0.5750000000000001 -0.7830
C533 C 0.6653986686265375 0.5954929658551372 0.5750000000000001 -0.7830
C534 C 0.6844782438968343 0.5494307964732684 0.5750000000000001 -0.7830
C535 C 0.6909859317102743 0.5 0.5750000000000001 -0.7830
C536 C 0.6844782438968343 0.4505692035267315 0.5750000000000001 -0.7830
C537 C 0.6653986686265376 0.40450703414486283 0.5750000000000001 -0.7830
C538 C 0.635047447423566 0.3649525525764341 0.5750000000000001 -0.7830
C539 C 0.5954929658551372 0.3346013313734623 0.5750000000000001 -0.7830
C540 C 0.5494307964732684 0.31552175610316563 0.5750000000000001 -0.7830
C541 C 0.5 0.3090140682897256 0.5750000000000001 -0.7830
C542 C 0.4505692035267315 0.31552175610316563 0.5750000000000001 -0.7830
C543 C 0.4045070341448628 0.3346013313734624 0.5750000000000001 -0.7830
C544 C 0.3649525525764341 0.36495255257643405 0.5750000000000001 -0.7830
C545 C 0.33460133137346243 0.4045070341448627 0.5750000000000001 -0.7830
C546 C 0.31552175610316563 0.4505692035267315 0.5750000000000001 -0.7830
C547 C 0.3090140682897256 0.49999999999999994 0.5750000000000001 -0.7830
C548 C 0.31552175610316563 0.5494307964732683 0.5750000000000001 -0.7830
C549 C 0.3346013313734624 0.5954929658551372 0.5750000000000001 -0.7830
C550 C 0.36495255257643405 0.6350474474235659 0.5750000000000001 -0.7830
C551 C 0.4045070341448627 0.6653986686265375 0.5750000000000001 -0.7830
C552 C 0.4505692035267315 0.6844782438968343 0.5750000000000001 -0.7830
C553 C 0.5 0.7409859317102745 0.5750000000000001 0.7830
C554 C 0.5623717487283946 0.7327745352112879 0.5750000000000001 0.7830
C555 C 0.6204929658551372 0.7086999388157595 0.5750000000000001 0.7830
C556 C 0.6704027864828932 0.6704027864828933 0.5750000000000001 0.7830
C557 C 0.7086999388157595 0.6204929658551372 0.5750000000000001 0.7830
C558 C 0.7327745352112879 0.5623717487283946 0.5750000000000001 0.7830
C559 C 0.7409859317102745 0.5 0.5750000000000001 0.7830
C560 C 0.7327745352112879 0.43762825127160543 0.5750000000000001 0.7830
C561 C 0.7086999388157595 0.37950703414486286 0.5750000000000001 0.7830
C562 C 0.6704027864828933 0.32959721351710675 0.5750000000000001 0.7830
C563 C 0.6204929658551372 0.29130006118424046 0.5750000000000001 0.7830
C564 C 0.5623717487283946 0.2672254647887123 0.5750000000000001 0.7830
C565 C 0.5000000000000001 0.2590140682897256 0.5750000000000001 0.7830
C566 C 0.4376282512716055 0.26722546478871223 0.5750000000000001 0.7830
C567 C 0.3795070341448628 0.29130006118424046 0.5750000000000001 0.7830
C568 C 0.32959721351710675 0.32959721351710664 0.5750000000000001 0.7830
C569 C 0.2913000611842405 0.3795070341448627 0.5750000000000001 0.7830
C570 C 0.26722546478871223 0.4376282512716055 0.5750000000000001 0.7830
C571 C 0.2590140682897256 0.49999999999999994 0.5750000000000001 0.7830
C572 C 0.2672254647887122 0.5623717487283945 0.5750000000000001 0.7830
C573 C 0.29130006118424046 0.6204929658551372 0.5750000000000001 0.7830
C574 C 0.32959721351710664 0.6704027864828932 0.5750000000000001 0.7830
C575 C 0.3795070341448627 0.7086999388157594 0.5750000000000001 0.7830
C576 C 0.4376282512716055 0.7327745352112879 0.5750000000000001 0.7830
C577 C 0.5 0.6909859317102743 0.625 -0.7830
C578 C 0.5494307964732684 0.6844782438968343 0.625 -0.7830
C579 C 0.5954929658551372 0.6653986686265376 0.625 -0.7830
C580 C 0.6350474474235659 0.635047447423566 0.625 -0.7830
C581 C 0.6653986686265375 0.5954929658551372 0.625 -0.7830
C582 C 0.6844782438968343 0.5494307964732684 0.625 -0.7830
C583 C 0.6909859317102743 0.5 0.625 -0.7830
C584 C 0.6844782438968343 0.4505692035267315 0.625 -0.7830
C585 C 0.6653986686265376 0.40450703414486283 0.625 -0.7830
C586 C 0.635047447423566 0.3649525525764341 0.625 -0.7830
C587 C 0.5954929658551372 0.3346013313734623 0.625 -0.7830
C588 C 0.5494307964732684 0.31552175610316563 0.625 -0.7830
C589 C 0.5 0.3090140682897256 0.625 -0.7830
C590 C 0.4505692035267315 0.31552175610316563 0.625 -0.7830
C591 C 0.4045070341448628 0.3346013313734624 0.625 -0.7830
C592 C 0.3649525525764341 0.36495255257643405 0.625 -0.7830
C593 C 0.33460133137346243 0.4045070341448627 0.625 -0.7830
C594 C 0.31552175610316563 0.4505692035267315 0.625 -0.7830
C595 C 0.3090140682897256 0.49999999999999994 0.625 -0.7830
C596 C 0.31552175610316563 0.5494307964732683 0.625 -0.7830
C597 C 0.3346013313734624 0.5954929658551372 0.625 -0.7830
C598 C 0.36495255257643405 0.6350474474235659 0.625 -0.7830
C599 C 0.4045070341448627 0.6653986686265375 0.625 -0.7830
C600 C 0.4505692035267315 0.6844782438968343 0.625 -0.7830
C601 C 0.5 0.7409859317102745 0.625 0.7830
C602 C 0.5623717487283946 0.7327745352112879 0.625 0.7830
C603 C 0.6204929658551372 0.7086999388157595 0.625 0.7830
C604 C 0.6704027864828932 0.6704027864828933 0.625 0.7830
C605 C 0.7086999388157595 0.6204929658551372 0.625 0.7830
C606 C 0.7327745352112879 0.5623717487283946 0.625 0.7830
C607 C 0.7409859317102745 0.5 0.625 0.7830
C608 C 0.7327745352112879 0.43762825127160543 0.625 0.7830
C609 C 0.7086999388157595 0.37950703414486286 0.625 0.7830
C610 C 0.6704027864828933 0.32959721351710675 0.625 0.7830
C611 C 0.6204929658551372 0.29130006118424046 0.625 0.7830
C612 C 0.5623717487283946 0.2672254647887123 0.625 0.7830
C613 C 0.5000000000000001 0.2590140682897256 0.625 0.7830
C614 C 0.4376282512716055 0.26722546478871223 0.625 0.7830
C615 C 0.3795070341448628 0.29130006118424046 0.625 0.7830
C616 C 0.32959721351710675 0.32959721351710664 0.625 0.7830
C617 C 0.2913000611842405 0.3795070341448627 0.625 0.7830
C618 C 0.26722546478871223 0.4376282512716055 0.625 0.7830
C619 C 0.2590140682897256 0.49999999999999994 0.625 0.7830
C620 C 0.2672254647887122 0.5623717487283945 0.625 0.7830
C621 C 0.29130006118424046 0.6204929658551372 0.625 0.7830
C622 C 0.32959721351710664 0.6704027864828932 0.625 0.7830
C623 C 0.3795070341448627 0.7086999388157594 0.625 0.7830
C624 C 0.4376282512716055 0.7327745352112879 0.625 0.7830
C625 C 0.5 0.6909859317102743 0.6749999999999999 -0.7830
C626 C 0.5494307964732684 0.6844782438968343 0.6749999999999999 -0.7830
C627 C 0.5954929658551372 0.6653986686265376 0.6749999999999999 -0.7830
C628 C 0.6350474474235659 0.635047447423566 0.6749999999999999 -0.7830
C629 C 0.6653986686265375 0.5954929658551372 0.6749999999999999 -0.7830
C630 C 0.6844782438968343 0.5494307964732684 0.6749999999999999 -0.7830
C631 C 0.6909859317102743 0.5 0.6749999999999999 -0.7830
C632 C 0.6844782438968343 0.4505692035267315 0.6749999999999999 -0.7830
C633 C 0.6653986686265376 0.40450703414486283 0.6749999999999999 -0.7830
C634 C 0.635047447423566 0.3649525525764341 0.6749999999999999 -0.7830
C635 C 0.5954929658551372 0.3346013313734623 0.6749999999999999 -0.7830
C636 C 0.5494307964732684 0.31552175610316563 0.6749999999999999 -0.7830
C637 C 0.5 0.3090140682897256 0.6749999999999999 -0.7830
C638 C 0.4505692035267315 0.31552175610316563 0.6749999999999999 -0.7830
C639 C 0.4045070341448628 0.3346013313734624 0.6749999999999999 -0.7830
C640 C 0.3649525525764341 0.36495255257643405 0.6749999999999999 -0.7830
C641 C 0.33460133137346243 0.4045070341448627 0.6749999999999999 -0.7830
C642 C 0.31552175610316563 0.4505692035267315 0.6749999999999999 -0.7830
C643 C 0.3090140682897256 0.49999999999999994 0.6749999999999999 -0.7830
C644 C 0.31552175610316563 0.5494307964732683 0.6749999999999999 -0.7830
C645 C 0.3346013313734624 0.5954929658551372 0.6749999999999999 -0.7830
C646 C 0.36495255257643405 0.6350474474235659 0.6749999999999999 -0.7830
C647 C 0.4045070341448627 0.6653986686265375 0.6749999999999999 -0.7830
C648 C 0.4505692035267315 0.6844782438968343 0.6749999999999999 -0.7830
C649 C 0.5 0.7409859317102745 0.6749999999999999 0.7830
C650 C 0.5623717487283946 0.7327745352112879 0.6749999999999999 0.7830
C651 C 0.6204929658551372 0.7086999388157595 0.6749999999999999 0.7830
C652 C 0.6704027864828932 0.6704027864828933 0.6749999999999999 0.7830
C653 C 0.7086999388157595 0.6204929658551372 0.6749999999999999 0.7830
C654 C 0.7327745352112879 0.5623717487283946 0.6749999999999999 0.7830
C655 C 0.7409859317102745 0.5 0.6749999999999999 0.7830
C656 C 0.7327745352112879 0.43762825127160543 0.6749999999999999 0.7830
C657 C 0.7086999388157595 0.37950703414486286 0.6749999999999999 0.7830
C658 C 0.6704027864828933 0.32959721351710675 0.6749999999999999 0.7830
C659 C 0.6204929658551372 0.29130006118424046 0.6749999999999999 0.7830
C660 C 0.5623717487283946 0.2672254647887123 0.6749999999999999 0.7830
C661 C 0.5000000000000001 0.2590140682897256 0.6749999999999999 0.7830
C662 C 0.4376282512716055 0.26722546478871223 0.6749999999999999 0.7830
C663 C 0.3795070341448628 0.29130006118424046 0.6749999999999999 0.7830
C664 C 0.32959721351710675 0.32959721351710664 0.6749999999999999 0.7830
C665 C 0.2913000611842405 0.3795070341448627 0.6749999999999999 0.7830
C666 C 0.26722546478871223 0.4376282512716055 0.6749999999999999 0.7830
C667 C 0.2590140682897256 0.49999999999999994 0.6749999999999999 0.7830
C668 C 0.2672254647887122 0.5623717487283945 0.6749999999999999 0.7830
C669 C 0.29130006118424046 0.6204929658551372 0.6749999999999999 0.7830
C670 C 0.32959721351710664 0.6704027864828932 0.6749999999999999 0.7830
C671 C 0.3795070341448627 0.7086999388157594 0.6749999999999999 0.7830
C672 C 0.4376282512716055 0.7327745352112879 0.6749999999999999 0.7830
C673 C 0.5 0.6909859317102743 0.7250000000000001 -0.7830
C674 C 0.5494307964732684 0.6844782438968343 0.7250000000000001 -0.7830
C675 C 0.5954929658551372 0.6653986686265376 0.7250000000000001 -0.7830
C676 C 0.6350474474235659 0.635047447423566 0.7250000000000001 -0.7830
C677 C 0.6653986686265375 0.5954929658551372 0.7250000000000001 -0.7830
C678 C 0.6844782438968343 0.5494307964732684 0.7250000000000001 -0.7830
C679 C 0.6909859317102743 0.5 0.7250000000000001 -0.7830
C680 C 0.6844782438968343 0.4505692035267315 0.7250000000000001 -0.7830
C681 C 0.6653986686265376 0.40450703414486283 0.7250000000000001 -0.7830
C682 C 0.635047447423566 0.3649525525764341 0.7250000000000001 -0.7830
C683 C 0.5954929658551372 0.3346013313734623 0.7250000000000001 -0.7830
C684 C 0.5494307964732684 0.31552175610316563 0.7250000000000001 -0.7830
C685 C 0.5 0.3090140682897256 0.7250000000000001 -0.7830
C686 C 0.4505692035267315 0.31552175610316563 0.7250000000000001 -0.7830
C687 C 0.4045070341448628 0.3346013313734624 0.7250000000000001 -0.7830
C688 C 0.3649525525764341 0.36495255257643405 0.7250000000000001 -0.7830
C689 C 0.33460133137346243 0.4045070341448627 0.7250000000000001 -0.7830
C690 C 0.31552175610316563 0.4505692035267315 0.7250000000000001 -0.7830
C691 C 0.3090140682897256 0.49999999999999994 0.7250000000000001 -0.7830
C692 C 0.31552175610316563 0.5494307964732683 0.7250000000000001 -0.7830
C693 C 0.3346013313734624 0.5954929658551372 0.7250000000000001 -0.7830
C694 C 0.36495255257643405 0.6350474474235659 0.7250000000000001 -0.7830
C695 C 0.4045070341448627 0.6653986686265375 0.7250000000000001 -0.7830
C696 C 0.4505692035267315 0.6844782438968343 0.7250000000000001 -0.7830
C697 C 0.5 0.7409859317102745 0.7250000000000001 0.7830
C698 C 0.5623717487283946 0.7327745352112879 0.7250000000000001 0.7830
C699 C 0.6204929658551372 0.7086999388157595 0.7250000000000001 0.7830
C700 C 0.6704027864828932 0.6704027864828933 0.7250000000000001 0.7830
C701 C 0.7086999388157595 0.6204929658551372 0.7250000000000001 0.7830
C702 C 0.7327745352112879 0.5623717487283946 0.7250000000000001 0.7830
C703 C 0.7409859317102745 0.5 0.7250000000000001 0.7830
C704 C 0.7327745352112879 0.43762825127160543 0.7250000000000001 0.7830
C705 C 0.7086999388157595 0.37950703414486286 0.7250000000000001 0.7830
C706 C 0.6704027864828933 0.32959721351710675 0.7250000000000001 0.7830
C707 C 0.6204929658551372 0.29130006118424046 0.7250000000000001 0.7830
C708 C 0.5623717487283946 0.2672254647887123 0.7250000000000001 0.7830
C709 C 0.5000000000000001 0.2590140682897256 0.7250000000000001 0.7830
C710 C 0.4376282512716055 0.26722546478871223 0.7250000000000001 0.7830
C711 C 0.3795070341448628 0.29130006118424046 0.7250000000000001 0.7830
C712 C 0.32959721351710675 0.32959721351710664 0.7250000000000001 0.7830
C713 C 0.2913000611842405 0.3795070341448627 0.7250000000000001 0.7830
C714 C 0.26722546478871223 0.4376282512716055 0.7250000000000001 0.7830
C715 C 0.2590140682897256 0.49999999999999994 0.7250000000000001 0.7830
C716 C 0.2672254647887122 0.5623717487283945 0.7250000000000001 0.7830
C717 C 0.29130006118424046 0.6204929658551372 0.7250000000000001 0.7830
C718 C 0.32959721351710664 0.6704027864828932 0.7250000000000001 0.7830
C719 C 0.3795070341448627 0.7086999388157594 0.7250000000000001 0.7830
C720 C 0.4376282512716055 0.7327745352112879 0.7250000000000001 0.7830
C721 C 0.5 0.6909859317102743 0.775 -0.7830
C722 C 0.5494307964732684 0.6844782438968343 0.775 -0.7830
C723 C 0.5954929658551372 0.6653986686265376 0.775 -0.7830
C724 C 0.6350474474235659 0.635047447423566 0.775 -0.7830
C725 C 0.6653986686265375 0.5954929658551372 0.775 -0.7830
C726 C 0.6844782438968343 0.5494307964732684 0.775 -0.7830
C727 C 0.6909859317102743 0.5 0.775 -0.7830
C728 C 0.6844782438968343 0.4505692035267315 0.775 -0.7830
C729 C 0.6653986686265376 0.40450703414486283 0.775 -0.7830
C730 C 0.635047447423566 0.3649525525764341 0.775 -0.7830
C731 C 0.5954929658551372 0.3346013313734623 0.775 -0.7830
C732 C 0.5494307964732684 0.31552175610316563 0.775 -0.7830
C733 C 0.5 0.3090140682897256 0.775 -0.7830
C734 C 0.4505692035267315 0.31552175610316563 0.775 -0.7830
C735 C 0.4045070341448628 0.3346013313734624 0.775 -0.7830
C736 C 0.3649525525764341 0.36495255257643405 0.775 -0.7830
C737 C 0.33460133137346243 0.4045070341448627 0.775 -0.7830
C738 C 0.31552175610316563 0.4505692035267315 0.775 -0.7830
C739 C 0.3090140682897256 0.49999999999999994 0.775 -0.7830
C740 C 0.31552175610316563 0.5494307964732683 0.775 -0.7830
C741 C 0.3346013313734624 0.5954929658551372 0.775 -0.7830
C742 C 0.36495255257643405 0.6350474474235659 0.775 -0.7830
C743 C 0.4045070341448627 0.6653986686265375 0.775 -0.7830
C744 C 0.4505692035267315 0.6844782438968343 0.775 -0.7830
C745 C 0.5 0.7409859317102745 0.775 0.7830
C746 C 0.5623717487283946 0.7327745352112879 0.775 0.7830
C747 C 0.6204929658551372 0.7086999388157595 0.775 0.7830
C748 C 0.6704027864828932 0.6704027864828933 0.775 0.7830
C749 C 0.7086999388157595 0.6204929658551372 0.775 0.7830
C750 C 0.7327745352112879 0.5623717487283946 0.775 0.7830
C751 C 0.7409859317102745 0.5 0.775 0.7830
C752 C 0.7327745352112879 0.43762825127160543 0.775 0.7830
C753 C 0.7086999388157595 0.37950703414486286 0.775 0.7830
C754 C 0.6704027864828933 0.32959721351710675 0.775 0.7830
C755 C 0.6204929658551372 0.29130006118424046 0.775 0.7830
C756 C 0.5623717487283946 0.2672254647887123 0.775 0.7830
C757 C 0.5000000000000001 0.2590140682897256 0.775 0.7830
C758 C 0.4376282512716055 0.26722546478871223 0.775 0.7830
C759 C 0.3795070341448628 0.29130006118424046 0.775 0.7830
C760 C 0.32959721351710675 0.32959721351710664 0.775 0.7830
C761 C 0.2913000611842405 0.3795070341448627 0.775 0.7830
C762 C 0.26722546478871223 0.4376282512716055 0.775 0.7830
C763 C 0.2590140682897256 0.49999999999999994 0.775 0.7830
C764 C 0.2672254647887122 0.5623717487283945 0.775 0.7830
C765 C 0.29130006118424046 0.6204929658551372 0.775 0.7830
C766 C 0.32959721351710664 0.6704027864828932 0.775 0.7830
C767 C 0.3795070341448627 0.7086999388157594 0.775 0.7830
C768 C 0.4376282512716055 0.7327745352112879 0.775 0.7830
C769 C 0.5 0.6909859317102743 0.825 -0.7830
C770 C 0.5494307964732684 0.6844782438968343 0.825 -0.7830
C771 C 0.5954929658551372 0.6653986686265376 0.825 -0.7830
C772 C 0.6350474474235659 0.635047447423566 0.825 -0.7830
C773 C 0.6653986686265375 0.5954929658551372 0.825 -0.7830
C774 C 0.6844782438968343 0.5494307964732684 0.825 -0.7830
C775 C 0.6909859317102743 0.5 0.825 -0.7830
C776 C 0.6844782438968343 0.4505692035267315 0.825 -0.7830
C777 C 0.6653986686265376 0.40450703414486283 0.825 -0.7830
C778 C 0.635047447423566 0.3649525525764341 0.825 -0.7830
C779 C 0.5954929658551372 0.3346013313734623 0.825 -0.7830
C780 C 0.5494307964732684 0.31552175610316563 0.825 -0.7830
C781 C 0.5 0.3090140682897256 0.825 -0.7830
C782 C 0.4505692035267315 0.31552175610316563 0.825 -0.7830
C783 C 0.4045070341448628 0.3346013313734624 0.825 -0.7830
C784 C 0.3649525525764341 0.36495255257643405 0.825 -0.7830
C785 C 0.33460133137346243 0.4045070341448627 0.825 -0.7830
C786 C 0.31552175610316563 0.4505692035267315 0.825 -0.7830
C787 C 0.3090140682897256 0.49999999999999994 0.825 -0.7830
C788 C 0.31552175610316563 0.5494307964732683 0.825 -0.7830
C789 C 0.3346013313734624 0.5954929658551372 0.825 -0.7830
C790 C 0.36495255257643405 0.6350474474235659 0.825 -0.7830
C791 C 0.4045070341448627 0.6653986686265375 0.825 -0.7830
C792 C 0.4505692035267315 0.6844782438968343 0.825 -0.7830
C793 C 0.5 0.7409859317102745 0.825 0.7830
C794 C 0.5623717487283946 0.7327745352112879 0.825 0.7830
C795 C 0.6204929658551372 0.7086999388157595 0.825 0.7830
C796 C 0.6704027864828932 0.6704027864828933 0.825 0.7830
C797 C 0.7086999388157595 0.6204929658551372 0.825 0.7830
C798 C 0.7327745352112879 0.5623717487283946 0.825 0.7830
C799 C 0.7409859317102745 0.5 0.825 0.7830
C800 C 0.7327745352112879 0.43762825127160543 0.825 0.7830
C801 C 0.7086999388157595 0.37950703414486286 0.825 0.7830
C802 C 0.6704027864828933 0.32959721351710675 0.825 0.7830
C803 C 0.6204929658551372 0.29130006118424046 0.825 0.7830
C804 C 0.5623717487283946 0.2672254647887123 0.825 0.7830
C805 C 0.5000000000000001 0.2590140682897256 0.825 0.7830
C806 C 0.4376282512716055 0.26722546478871223 0.825 0.7830
C807 C 0.3795070341448628 0.29130006118424046 0.825 0.7830
C808 C 0.32959721351710675 0.32959721351710664 0.825 0.7830
C809 C 0.2913000611842405 0.3795070341448627 0.825 0.7830
C810 C 0.26722546478871223 0.4376282512716055 0.825 0.7830
C811 C 0.2590140682897256 0.49999999999999994 0.825 0.7830
C812 C 0.2672254647887122 0.5623717487283945 0.825 0.7830
C813 C 0.29130006118424046 0.6204929658551372 0.825 0.7830
C814 C 0.32959721351710664 0.6704027864828932 0.825 0.7830
C815 C 0.3795070341448627 0.7086999388157594 0.825 0.7830
C816 C 0.4376282512716055 0.7327745352112879 0.825 0.7830
C817 C 0.5 0.6909859317102743 0.875 -0.7830
C818 C 0.5494307964732684 0.6844782438968343 0.875 -0.7830
C819 C 0.5954929658551372 0.6653986686265376 0.875 -0.7830
C820 C 0.6350474474235659 0.635047447423566 0.875 -0.7830
C821 C 0.6653986686265375 0.5954929658551372 0.875 -0.7830
C822 C 0.6844782438968343 0.5494307964732684 0.875 -0.7830
C823 C 0.6909859317102743 0.5 0.875 -0.7830
C824 C 0.6844782438968343 0.4505692035267315 0.875 -0.7830
C825 C 0.6653986686265376 0.40450703414486283 0.875 -0.7830
C826 C 0.635047447423566 0.3649525525764341 0.875 -0.7830
C827 C 0.5954929658551372 0.3346013313734623 0.875 -0.7830
C828 C 0.5494307964732684 0.31552175610316563 0.875 -0.7830
C829 C 0.5 0.3090140682897256 0.875 -0.7830
C830 C 0.4505692035267315 0.31552175610316563 0.875 -0.7830
C831 C 0.4045070341448628 0.3346013313734624 0.875 -0.7830
C832 C 0.3649525525764341 0.36495255257643405 0.875 -0.7830
C833 C 0.33460133137346243 0.4045070341448627 0.875 -0.7830
C834 C 0.31552175610316563 0.4505692035267315 0.875 -0.7830
C835 C 0.3090140682897256 0.49999999999999994 0.875 -0.7830
C836 C 0.31552175610316563 0.5494307964732683 0.875 -0.7830
C837 C 0.3346013313734624 0.5954929658551372 0.875 -0.7830
C838 C 0.36495255257643405 0.6350474474235659 0.875 -0.7830
C839 C 0.4045070341448627 0.6653986686265375 0.875 -0.7830
C840 C 0.4505692035267315 0.6844782438968343 0.875 -0.7830
C841 C 0.5 0.7409859317102745 0.875 0.7830
C842 C 0.5623717487283946 0.7327745352112879 0.875 0.7830
C843 C 0.6204929658551372 0.7086999388157595 0.875 0.7830
C844 C 0.6704027864828932 0.6704027864828933 0.875 0.7830
C845 C 0.7086999388157595 0.6204929658551372 0.875 0.7830
C846 C 0.7327745352112879 0.5623717487283946 0.875 0.7830
C847 C 0.7409859317102745 0.5 0.875 0.7830
C848 C 0.7327745352112879 0.43762825127160543 0.875 0.7830
C849 C 0.7086999388157595 0.37950703414486286 0.875 0.7830
C850 C 0.6704027864828933 0.32959721351710675 0.875 0.7830
C851 C 0.6204929658551372 0.29130006118424046 0.875 0.7830
C852 C 0.5623717487283946 0.2672254647887123 0.875 0.7830
C853 C 0.5000000000000001 0.2590140682897256 0.875 0.7830
C854 C 0.4376282512716055 0.26722546478871223 0.875 0.7830
C855 C 0.3795070341448628 0.29130006118424046 0.875 0.7830
C856 C 0.32959721351710675 0.32959721351710664 0.875 0.7830
C857 C 0.2913000611842405 0.3795070341448627 0.875 0.7830
C858 C 0.26722546478871223 0.4376282512716055 0.875 0.7830
C859 C 0.2590140682897256 0.49999999999999994 0.875 0.7830
C860 C 0.2672254647887122 0.5623717487283945 0.875 0.7830
C861 C 0.29130006118424046 0.6204929658551372 0.875 0.7830
C862 C 0.32959721351710664 0.6704027864828932 0.875 0.7830
C863 C 0.3795070341448627 0.7086999388157594 0.875 0.7830
C864 C 0.4376282512716055 0.7327745352112879 0.875 0.7830
C865 C 0.5 0.6909859317102743 0.9249999999999999 -0.7830
C866 C 0.5494307964732684 0.6844782438968343 0.9249999999999999 -0.7830
C867 C 0.5954929658551372 0.6653986686265376 0.9249999999999999 -0.7830
C868 C 0.6350474474235659 0.635047447423566 0.9249999999999999 -0.7830
C869 C 0.6653986686265375 0.5954929658551372 0.9249999999999999 -0.7830
C870 C 0.6844782438968343 0.5494307964732684 0.9249999999999999 -0.7830
C871 C 0.6909859317102743 0.5 0.9249999999999999 -0.7830
C872 C 0.6844782438968343 0.4505692035267315 0.9249999999999999 -0.7830
C873 C 0.6653986686265376 0.40450703414486283 0.9249999999999999 -0.7830
C874 C 0.635047447423566 0.3649525525764341 0.9249999999999999 -0.7830
C875 C 0.5954929658551372 0.3346013313734623 0.9249999999999999 -0.7830
C876 C 0.5494307964732684 0.31552175610316563 0.9249999999999999 -0.7830
C877 C 0.5 0.3090140682897256 0.9249999999999999 -0.7830
C878 C 0.4505692035267315 0.31552175610316563 0.9249999999999999 -0.7830
C879 C 0.4045070341448628 0.3346013313734624 0.9249999999999999 -0.7830
C880 C 0.3649525525764341 0.36495255257643405 0.9249999999999999 -0.7830
C881 C 0.33460133137346243 0.4045070341448627 0.9249999999999999 -0.7830
C882 C 0.31552175610316563 0.4505692035267315 0.9249999999999999 -0.7830
C883 C 0.3090140682897256 0.49999999999999994 0.9249999999999999 -0.7830
C884 C 0.31552175610316563 0.5494307964732683 0.9249999999999999 -0.7830
C885 C 0.3346013313734624 0.5954929658551372 0.9249999999999999 -0.7830
C886 C 0.36495255257643405 0.6350474474235659 0.9249999999999999 -0.7830
C887 C 0.4045070341448627 0.6653986686265375 0.9249999999999999 -0.7830
C888 C 0.4505692035267315 0.6844782438968343 0.9249999999999999 -0.7830
C889 C 0.5 0.7409859317102745 0.9249999999999999 0.7830
C890 C 0.5623717487283946 0.7327745352112879 0.9249999999999999 0.7830
C891 C 0.6204929658551372 0.7086999388157595 0.9249999999999999 0.7830
C892 C 0.6704027864828932 0.6704027864828933 0.9249999999999999 0.7830
C893 C 0.7086999388157595 0.6204929658551372 0.9249999999999999 0.7830
C894 C 0.7327745352112879 0.5623717487283946 0.9249999999999999 0.7830
C895 C 0.7409859317102745 0.5 0.9249999999999999 0.7830
C896 C 0.7327745352112879 0.43762825127160543 0.9249999999999999 0.7830
C897 C 0.7086999388157595 0.37950703414486286 0.9249999999999999 0.7830
C898 C 0.6704027864828933 0.32959721351710675 0.9249999999999999 0.7830
C899 C 0.6204929658551372 0.29130006118424046 0.9249999999999999 0.7830
C900 C 0.5623717487283946 0.2672254647887123 0.9249999999999999 0.7830
C901 C 0.5000000000000001 0.2590140682897256 0.9249999999999999 0.7830
C902 C 0.4376282512716055 0.26722546478871223 0.9249999999999999 0.7830
C903 C 0.3795070341448628 0.29130006118424046 0.9249999999999999 0.7830
C904 C 0.32959721351710675 0.32959721351710664 0.9249999999999999 0.7830
C905 C 0.2913000611842405 0.3795070341448627 0.9249999999999999 0.7830
C906 C 0.26722546478871223 0.4376282512716055 0.9249999999999999 0.7830
C907 C 0.2590140682897256 0.49999999999999994 0.9249999999999999 0.7830
C908 C 0.2672254647887122 0.5623717487283945 0.9249999999999999 0.7830
C909 C 0.29130006118424046 0.6204929658551372 0.9249999999999999 0.7830
C910 C 0.32959721351710664 0.6704027864828932 0.9249999999999999 0.7830
C911 C 0.3795070341448627 0.7086999388157594 0.9249999999999999 0.7830
C912 C 0.4376282512716055 0.7327745352112879 0.9249999999999999 0.7830
C913 C 0.5 0.6909859317102743 0.975 -0.7830
C914 C 0.5494307964732684 0.6844782438968343 0.975 -0.7830
C915 C 0.5954929658551372 0.6653986686265376 0.975 -0.7830
C916 C 0.6350474474235659 0.635047447423566 0.975 -0.7830
C917 C 0.6653986686265375 0.5954929658551372 0.975 -0.7830
C918 C 0.6844782438968343 0.5494307964732684 0.975 -0.7830
C919 C 0.6909859317102743 0.5 0.975 -0.7830
C920 C 0.6844782438968343 0.4505692035267315 0.975 -0.7830
C921 C 0.6653986686265376 0.40450703414486283 0.975 -0.7830
C922 C 0.635047447423566 0.3649525525764341 0.975 -0.7830
C923 C 0.5954929658551372 0.3346013313734623 0.975 -0.7830
C924 C 0.5494307964732684 0.31552175610316563 0.975 -0.7830
C925 C 0.5 0.3090140682897256 0.975 -0.7830
C926 C 0.4505692035267315 0.31552175610316563 0.975 -0.7830
C927 C 0.4045070341448628 0.3346013313734624 0.975 -0.7830
C928 C 0.3649525525764341 0.36495255257643405 0.975 -0.7830
C929 C 0.33460133137346243 0.4045070341448627 0.975 -0.7830
C930 C 0.31552175610316563 0.4505692035267315 0.975 -0.7830
C931 C 0.3090140682897256 0.49999999999999994 0.975 -0.7830
C932 C 0.31552175610316563 0.5494307964732683 0.975 -0.7830
C933 C 0.3346013313734624 0.5954929658551372 0.975 -0.7830
C934 C 0.36495255257643405 0.6350474474235659 0.975 -0.7830
C935 C 0.4045070341448627 0.6653986686265375 0.975 -0.7830
C936 C 0.4505692035267315 0.6844782438968343 0.975 -0.7830
C937 C 0.5 0.7409859317102745 0.975 0.7830
C938 C 0.5623717487283946 0.7327745352112879 0.975 0.7830
C939 C 0.6204929658551372 0.7086999388157595 0.975 0.7830
C940 C 0.6704027864828932 0.6704027864828933 0.975 0.7830
C941 C 0.7086999388157595 0.6204929658551372 0.975 0.7830
C942 C 0.7327745352112879 0.5623717487283946 0.975 0.7830
C943 C 0.7409859317102745 0.5 0.975 0.7830
C944 C 0.7327745352112879 0.43762825127160543 0.975 0.7830
C945 C 0.7086999388157595 0.37950703414486286 0.975 0.7830
C946 C 0.6704027864828933 0.32959721351710675 0.975 0.7830
C947 C 0.6204929658551372 0.29130006118424046 0.975 0.7830
C948 C 0.5623717487283946 0.2672254647887123 0.975 0.7830
C949 C 0.5000000000000001 0.2590140682897256 0.975 0.7830
C950 C 0.4376282512716055 0.26722546478871223 0.975 0.7830
C951 C 0.3795070341448628 0.29130006118424046 0.975 0.7830
C952 C 0.32959721351710675 0.32959721351710664 0.975 0.7830
C953 C 0.2913000611842405 0.3795070341448627 0.975 0.7830
C954 C 0.26722546478871223 0.4376282512716055 0.975 0.7830
C955 C 0.2590140682897256 0.49999999999999994 0.975 0.7830
C956 C 0.2672254647887122 0.5623717487283945 0.975 0.7830
C957 C 0.29130006118424046 0.6204929658551372 0.975 0.7830
C958 C 0.32959721351710664 0.6704027864828932 0.975 0.7830
C959 C 0.3795070341448627 0.7086999388157594 0.975 0.7830
C960 C 0.4376282512716055 0.7327745352112879 0.975 0.7830
